<?xml version="1.0" encoding="UTF-8"?>

<!-- generated on 2021-12-05 23:36:24 by Eclipse SUMO polyconvert Version 1.9.2
<configuration xmlns:xsi="http://www.w3.org/2001/XMLSchema-instance" xsi:noNamespaceSchemaLocation="http://sumo.dlr.de/xsd/polyconvertConfiguration.xsd">

    <input>
        <net-file value="osm.net.xml"/>
        <osm-files value="osm_bbox.osm.xml"/>
        <osm.keep-full-type value="true"/>
        <type-file value="C:\Program%20Files%20(x86)\Eclipse\Sumo\data\typemap\osmPolyconvert.typ.xml"/>
    </input>

    <output>
        <output-file value="osm.poly.xml"/>
    </output>

    <processing>
        <poi-layer-offset value="5"/>
    </processing>

    <report>
        <verbose value="true"/>
    </report>

</configuration>
-->

<additional xmlns:xsi="http://www.w3.org/2001/XMLSchema-instance" xsi:noNamespaceSchemaLocation="http://sumo.dlr.de/xsd/additional_file.xsd">
    <location netOffset="-270676.52,-2115166.86" convBoundary="0.00,-843.69,12818.81,2985.67" origBoundary="72.819690,19.110260,72.941679,19.144398" projParameter="+proj=utm +zone=43 +ellps=WGS84 +datum=WGS84 +units=m +no_defs"/>

    <poly id="151581225" type="landuse.industrial" color="209,209,204" fill="1" layer="-3.00" shape="10824.344748,829.465330 10850.309867,724.258374 10881.466888,598.052222 10905.783156,347.741256 10998.283927,352.400499 10995.428010,421.226153 11091.986582,425.538701 11073.429979,611.561902 11067.373363,770.719536 11049.305763,792.181611 10978.681038,803.881993 10824.344748,829.465330"/>
    <poly id="151850841" type="landuse.residential" color="235,235,227" fill="1" layer="-3.00" shape="11024.525067,-59.598386 10882.391858,-121.587510 10801.878176,-146.451723 10764.764893,-160.925129 10744.046843,-156.083994 10738.948029,-99.809654 10735.159932,-29.777013 10750.418536,40.029300 10761.806157,75.469094 10778.673972,86.739513 10797.359863,104.875277 10799.977816,131.229317 10785.857590,157.217539 10788.064115,196.774577 10792.071240,242.610327 10797.681648,278.118772 10791.745190,312.601830 10777.196978,399.979676 10775.383203,441.300695 10788.877378,460.073873 10792.183165,495.598632 10793.116325,525.416165 10774.891973,593.904199 10756.030620,658.369544 10755.299604,693.377606 10776.800019,705.744417 10835.258192,720.528714 10850.309867,724.258374 10881.466888,598.052222 10905.783156,347.741256 10998.283927,352.400499 10995.428010,421.226153 11091.986582,425.538701 11106.727941,301.986032 11019.452060,291.539861 11026.519354,205.989480 10953.680363,195.372226 10957.697027,145.422008 10964.634654,146.480085 10960.593800,97.765969 11046.692632,106.498667 11062.178678,1.339189 11142.398567,1.527953 11144.278210,-35.209800 11064.612745,-36.556679 11056.790241,-112.186762 11026.223846,-110.672553 11024.525067,-59.598386"/>
    <poly id="156931858" type="landuse.residential" color="235,235,227" fill="1" layer="-3.00" shape="10677.290928,921.385864 10612.410904,924.958812 10607.396183,882.932806 10602.571992,810.035077 10592.345619,709.432386 10598.413727,697.568251 10599.077231,633.020170 10596.193641,604.709491 10593.848345,550.870858 10609.700214,554.612969 10628.645113,571.538581 10619.385625,656.639335 10624.373587,696.417988 10637.687704,715.093547 10658.133671,725.512978 10667.701427,731.821109 10709.552696,881.153198 10677.290928,921.385864"/>
    <poly id="177566574" type="landuse.residential" color="235,235,227" fill="1" layer="-3.00" shape="10261.540560,101.549582 10298.817097,161.549200 10343.368456,233.265295 10370.878429,341.933192 10424.254219,486.632390 10430.580987,551.318773 10388.187516,594.473823 10326.360727,539.926152 10304.904853,540.181677 10285.979667,618.599506 10392.719861,641.023050 10484.820183,702.318972 10461.305938,729.449081 10477.363159,771.675819 10461.711857,784.772371 10473.859146,815.929087 10525.198628,806.460285 10531.189784,835.010796 10511.349652,1115.131654 10531.557690,1116.197673 10525.589593,1170.932488 10537.289828,1171.623659 10548.495025,1127.179097 10582.617257,1123.960712 10576.688458,1059.070284 10547.923110,1064.085060 10565.166959,910.661888 10602.529241,900.219138 10587.280678,709.193685 10591.577995,690.906557 10594.018087,635.040136 10584.388038,522.638406 10495.418129,457.351888 10437.868427,428.805984 10424.622343,348.678644 10453.673735,274.746630 10435.405861,234.273462 10396.575383,197.521738 10335.169946,170.505633 10319.946250,139.119850 10300.408281,110.453865 10282.380839,42.485487 10185.505057,-127.814858 10168.007964,-174.187486 10171.292869,-230.628793 10142.417921,-237.293549 10134.845941,-209.422989 10132.356679,-181.612983 10133.348909,-145.152719 10154.040712,-84.169553 10243.745802,70.803439 10261.540560,101.549582"/>
    <poly id="233081734" type="landuse.residential" color="235,235,227" fill="1" layer="-3.00" shape="10912.642548,1130.765923 10896.459695,953.846608 10774.771978,976.053159 10782.529938,1087.757444 10787.762284,1163.174776 10901.455426,1133.401161 10912.642548,1130.765923"/>
    <poly id="233081736" type="leisure.pitch" color="207,245,201" fill="1" layer="-2.00" shape="10934.923335,1033.464121 10970.288410,1034.749190 10970.700988,1011.891193 10934.327291,1011.636745 10934.923335,1033.464121"/>
    <poly id="233081736#1" type="sport.basketball" color="79,230,125" fill="1" layer="-2.00" shape="10934.923335,1033.464121 10970.288410,1034.749190 10970.700988,1011.891193 10934.327291,1011.636745 10934.923335,1033.464121"/>
    <poly id="315588848" type="building.university" color="255,230,230" fill="1" layer="-1.00" shape="10252.738105,1371.467941 10252.108844,1391.959175 10341.844570,1397.234347 10342.320291,1388.581227 10351.316820,1388.474053 10348.729833,1438.983409 10365.003581,1441.092582 10370.316833,1335.853692 10354.278864,1334.992864 10351.944861,1375.822026 10252.738105,1371.467941"/>
    <poly id="340871376" type="building.commercial" color="255,230,230" fill="1" layer="-1.00" shape="9778.953691,661.704921 9807.789578,532.069306 9841.598429,533.359829 9842.765833,595.018645 9816.776517,675.713822 9778.953691,661.704921"/>
    <poly id="353138572" type="building.yes" color="255,230,230" fill="1" layer="-1.00" shape="9651.893018,620.139966 9659.283662,622.122204 9665.453408,599.427756 9658.062755,597.445515 9651.893018,620.139966"/>
    <poly id="353138573" type="building.yes" color="255,230,230" fill="1" layer="-1.00" shape="9574.879888,630.980920 9607.733672,636.024854 9609.835080,622.524728 9576.981273,617.480788 9574.879888,630.980920"/>
    <poly id="353138585" type="building.yes" color="255,230,230" fill="1" layer="-1.00" shape="9718.331638,643.860527 9741.142961,648.714601 9747.386580,643.657504 9749.295873,636.094460 9749.745604,625.282511 9744.430252,624.349472 9744.839607,622.495508 9745.606498,618.854631 9724.513441,615.120477 9718.331638,643.860527"/>
    <poly id="353180663" type="building.yes" color="255,230,230" fill="1" layer="-1.00" shape="9947.876092,486.019871 9956.086777,486.165519 9956.219410,478.756569 9962.981344,478.321597 9966.307126,476.565721 9966.095234,471.153895 9956.090168,468.804114 9956.222273,461.350882 9951.580130,461.273388 9951.540763,463.266871 9948.277504,463.206147 9947.876092,486.019871"/>
    <poly id="353180671" type="building.yes" color="255,230,230" fill="1" layer="-1.00" shape="9955.568936,444.517710 9963.035557,444.926901 9963.356235,439.165481 9969.580464,438.648348 9971.382070,437.929305 9973.270988,436.589172 9973.285979,430.787110 9965.845508,429.923638 9966.358472,420.871453 9959.997532,420.515505 9959.867948,422.886523 9956.803295,422.712704 9955.568936,444.517710"/>
    <poly id="353180682" type="building.yes" color="255,230,230" fill="1" layer="-1.00" shape="9983.907804,521.907218 9991.444750,522.038771 9991.555597,515.449433 9994.597736,515.501728 9994.703607,509.377486 9993.103616,509.352279 9993.272464,499.684151 9985.882828,499.550840 9985.769077,505.896622 9974.895213,505.705222 9974.756146,513.457489 9984.051060,513.623432 9983.907804,521.907218"/>
    <poly id="353180702" type="building.yes" color="255,230,230" fill="1" layer="-1.00" shape="10004.295441,403.832699 10012.194528,403.439549 10012.359484,406.681764 10020.258570,406.288618 10020.093088,403.002120 10027.750282,402.622933 10027.334535,394.235093 10019.929753,394.600197 10019.474249,385.526348 10014.141541,385.789240 10014.197758,386.973305 10011.410391,387.106195 10011.837461,395.560334 10003.896278,395.953986 10004.295441,403.832699"/>
    <poly id="353180714" type="building.yes" color="255,230,230" fill="1" layer="-1.00" shape="9963.093502,403.903348 9965.650157,403.839637 9965.693914,405.743550 9972.837735,405.558693 9972.910856,408.159810 9980.717482,407.955978 9980.641589,405.122375 9986.806917,404.960266 9986.599006,397.234284 9979.686686,397.416374 9979.435677,387.841832 9973.217861,388.015642 9973.274781,390.140843 9970.949627,390.201793 9971.139627,397.307941 9962.933260,397.527617 9963.093502,403.903348"/>
    <poly id="353180782" type="building.yes" color="255,230,230" fill="1" layer="-1.00" shape="10268.728420,500.918454 10261.709610,479.787576 10257.037417,481.603724 10254.511906,488.697922 10256.675833,494.540452 10259.243712,500.721411 10262.988263,501.429721 10265.203214,502.720938 10268.728420,500.918454"/>
    <poly id="353182354" type="building.yes" color="255,230,230" fill="1" layer="-1.00" shape="9962.013806,568.373069 9971.073363,568.220713 9971.207628,575.947576 9975.163915,575.878240 9975.133585,574.217757 9978.605826,574.154196 9978.245785,553.674739 9971.480181,553.799728 9971.588736,560.253583 9961.876896,560.424791 9962.013806,568.373069"/>
    <poly id="353182355" type="building.yes" color="255,230,230" fill="1" layer="-1.00" shape="9930.839905,603.567347 9963.117778,604.455595 9963.419526,593.578998 9946.575228,593.115599 9946.559069,593.525467 9944.137652,593.454703 9944.205017,591.161933 9938.835913,591.015613 9938.821339,591.558330 9932.494137,591.379152 9932.452001,593.140151 9931.135999,593.100490 9930.839905,603.567347"/>
    <poly id="353182361" type="building.yes" color="255,230,230" fill="1" layer="-1.00" shape="9934.317489,573.077030 9945.787282,572.940196 9945.726530,567.847663 9946.873510,567.833980 9946.766667,558.877764 9944.935707,558.899606 9944.869277,553.331032 9947.047487,553.305047 9947.011037,550.249527 9934.846727,550.394644 9934.923199,556.804594 9935.891292,556.793044 9936.008310,566.601707 9934.240488,566.622797 9934.317489,573.077030"/>
    <poly id="353182363" type="building.yes" color="255,230,230" fill="1" layer="-1.00" shape="9998.762359,682.023693 10005.178197,682.578291 10005.845911,675.030092 10009.101249,675.312363 10008.480866,682.417104 10017.119630,683.166640 10018.879961,663.104789 10013.075225,662.609331 10014.242511,649.297582 10018.277458,649.648063 10019.000262,641.423799 10000.985313,639.867087 10000.281978,647.958253 10006.265869,648.473715 10004.867343,664.456647 10000.337304,664.067786 9998.762359,682.023693"/>
    <poly id="353182374" type="building.yes" color="255,230,230" fill="1" layer="-1.00" shape="10389.095422,897.001785 10401.253036,897.200263 10401.404714,887.842386 10389.247094,887.643907 10389.095422,897.001785"/>
    <poly id="353182377" type="building.yes" color="255,230,230" fill="1" layer="-1.00" shape="10375.137206,870.207008 10389.614328,872.525880 10391.094876,863.406842 10376.617879,861.099039 10375.137206,870.207008"/>
    <poly id="353182379" type="building.yes" color="255,230,230" fill="1" layer="-1.00" shape="10462.646423,1059.552832 10481.302389,1062.840661 10483.503014,1050.557464 10464.846905,1047.258560 10462.646423,1059.552832"/>
    <poly id="353182380" type="building.yes" color="255,230,230" fill="1" layer="-1.00" shape="10359.688268,922.375318 10371.963198,922.705245 10375.004572,892.652089 10363.855114,891.389756 10359.688268,922.375318"/>
    <poly id="353182383" type="building.yes" color="255,230,230" fill="1" layer="-1.00" shape="10386.755719,916.162535 10400.811616,917.578502 10401.791805,907.978242 10387.735769,906.551203 10386.755719,916.162535"/>
    <poly id="353182389" type="building.yes" color="255,230,230" fill="1" layer="-1.00" shape="10366.681938,865.413750 10375.178409,866.596956 10377.779091,848.141722 10369.293134,846.958389 10366.681938,865.413750"/>
    <poly id="353182390" type="building.apartments" color="255,230,230" fill="1" layer="-1.00" shape="10185.942698,1257.499802 10223.394441,1256.400123 10222.651662,1231.164156 10185.199867,1232.263831 10185.942698,1257.499802"/>
    <poly id="353182392" type="building.yes" color="255,230,230" fill="1" layer="-1.00" shape="10316.341287,850.047076 10340.165239,856.904939 10345.493740,838.627583 10321.669768,831.769711 10316.341287,850.047076"/>
    <poly id="353182394" type="building.yes" color="255,230,230" fill="1" layer="-1.00" shape="10392.169393,869.683099 10403.259174,872.119822 10407.514538,852.980558 10396.424746,850.543831 10392.169393,869.683099"/>
    <poly id="353182403" type="building.yes" color="255,230,230" fill="1" layer="-1.00" shape="10329.728457,928.733316 10343.403671,929.112979 10343.567921,923.464161 10349.989692,923.642340 10350.219904,915.578981 10330.112515,915.032333 10329.728457,928.733316"/>
    <poly id="353182411" type="building.yes" color="255,230,230" fill="1" layer="-1.00" shape="9999.150905,707.540705 10006.832533,709.220651 10006.443276,710.996862 10013.776596,712.592387 10014.165986,710.827247 10021.826433,712.496380 10024.552433,700.162548 10001.887415,695.206743 9999.150905,707.540705"/>
    <poly id="353193433" type="building.yes" color="255,230,230" fill="1" layer="-1.00" shape="10174.979676,607.011723 10183.861574,605.200745 10181.426326,593.371348 10172.544422,595.182328 10174.979676,607.011723"/>
    <poly id="353193435" type="building.yes" color="255,230,230" fill="1" layer="-1.00" shape="10169.170898,618.540765 10194.468780,613.932170 10187.875827,578.202968 10162.588550,582.822513 10169.170898,618.540765"/>
    <poly id="353193437" type="building.yes" color="255,230,230" fill="1" layer="-1.00" shape="10137.826134,626.177772 10151.548630,625.205934 10149.969790,603.113395 10142.083162,603.661359 10142.207786,605.287500 10140.357108,605.420281 10140.243006,603.794015 10134.901160,604.167711 10135.570500,613.526888 10136.927006,613.433213 10137.826134,626.177772"/>
    <poly id="353193439" type="building.yes" color="255,230,230" fill="1" layer="-1.00" shape="10657.516082,696.588522 10675.805775,686.749249 10651.007655,643.109427 10650.376104,586.460217 10635.000130,591.758447 10634.982748,648.703258 10648.209120,676.813431 10644.681946,678.449782 10650.749838,691.343231 10654.276878,689.695811 10657.516082,696.588522"/>
    <poly id="353193443" type="building.yes" color="255,230,230" fill="1" layer="-1.00" shape="10446.708448,881.467934 10454.673241,882.192469 10456.053725,867.317050 10452.945751,867.032951 10453.578788,860.094175 10440.293507,858.879363 10439.519769,867.259210 10447.063140,867.944470 10446.485334,874.218253 10450.952428,874.630112 10450.701134,877.390098 10447.108466,877.056409 10446.708448,881.467934"/>
    <poly id="353193446" type="building.yes" color="255,230,230" fill="1" layer="-1.00" shape="10474.148075,982.552217 10484.072639,983.474877 10484.146672,982.621431 10490.762960,983.229160 10490.689058,984.093677 10501.498561,985.094391 10502.349116,976.093586 10496.575680,975.564399 10496.454568,976.883441 10490.733744,976.353629 10490.826978,975.344943 10474.960349,973.872961 10474.148075,982.552217"/>
    <poly id="353193463" type="building.yes" color="255,230,230" fill="1" layer="-1.00" shape="10030.767381,732.408461 10038.554485,734.109306 10039.123646,731.533746 10041.001826,731.943167 10040.432665,734.518727 10058.032758,738.361306 10058.382305,736.784872 10060.946436,737.352200 10060.607280,738.917438 10068.330976,740.596906 10070.208117,732.093147 10061.397548,730.171974 10061.218041,731.004537 10058.094888,730.333152 10058.274263,729.489519 10032.644506,723.904696 10030.767381,732.408461"/>
    <poly id="353193466" type="building.yes" color="255,230,230" fill="1" layer="-1.00" shape="10136.396693,590.132369 10148.890466,590.260262 10148.948126,584.501986 10148.369244,584.497813 10148.423770,579.359622 10148.992261,579.374991 10149.034319,574.956648 10148.034395,574.946421 10148.097564,568.767332 10140.119350,568.696339 10140.088806,571.431558 10138.709932,571.414776 10138.633408,579.122000 10139.801827,579.141290 10139.745456,584.124491 10136.450918,584.086253 10136.396693,590.132369"/>
    <poly id="353193468" type="building.yes" color="255,230,230" fill="1" layer="-1.00" shape="10261.842439,568.685317 10265.457274,569.107292 10265.581409,568.042874 10270.165786,568.575095 10270.041651,569.639513 10274.415309,570.152101 10274.855441,566.459789 10275.540474,566.540208 10279.144909,536.048510 10276.541702,535.736277 10277.392909,528.562375 10269.193679,527.608174 10267.654599,540.647506 10268.676888,540.768196 10267.979411,546.711245 10266.946600,546.590681 10264.996983,563.155889 10262.530839,562.864170 10261.842439,568.685317"/>
    <poly id="353193476" type="building.yes" color="255,230,230" fill="1" layer="-1.00" shape="10706.425563,779.237082 10711.706584,779.063572 10711.621460,776.329738 10716.292435,776.185626 10716.472546,781.597815 10725.361890,781.303904 10724.782360,763.539832 10733.671713,763.245925 10733.229542,749.953410 10726.370518,750.178890 10726.206462,745.231545 10718.789869,745.474728 10718.877229,748.396764 10712.744132,748.602546 10712.694927,747.119449 10704.016017,747.410863 10704.356902,757.493631 10700.843276,757.612913 10701.237318,769.510898 10706.097570,769.353462 10706.425563,779.237082"/>
    <poly id="353193485" type="building.yes" color="255,230,230" fill="1" layer="-1.00" shape="10470.107806,957.875932 10480.185214,958.376026 10479.936197,963.095776 10483.621705,963.273354 10483.553337,964.602840 10497.200631,965.292969 10497.466217,960.196565 10500.593769,960.358642 10500.696454,958.375484 10505.519313,958.617035 10506.980573,930.188207 10497.882405,929.731804 10497.266823,941.675034 10500.668095,941.844926 10500.428014,946.431702 10497.479605,946.289637 10496.915829,957.280037 10482.141832,956.536884 10483.618303,927.620690 10472.909001,927.083825 10472.764776,929.997548 10474.102189,930.070207 10473.709738,937.770105 10471.150924,937.645552 10470.756629,945.190460 10472.441416,945.270056 10472.149539,950.809665 10470.475144,950.718873 10470.107806,957.875932"/>
    <poly id="353193492" type="building.yes" color="255,230,230" fill="1" layer="-1.00" shape="10440.169097,943.019030 10454.715965,944.130238 10455.609584,932.560151 10441.073230,931.448815 10440.169097,943.019030"/>
    <poly id="353193496" type="building.yes" color="255,230,230" fill="1" layer="-1.00" shape="10395.308781,562.345891 10404.468227,565.281723 10410.884665,545.552062 10401.725210,542.616226 10395.308781,562.345891"/>
    <poly id="353193500" type="building.yes" color="255,230,230" fill="1" layer="-1.00" shape="10382.449387,979.624734 10389.378217,980.848753 10390.917558,972.249410 10383.988857,971.036461 10382.449387,979.624734"/>
    <poly id="353193501" type="building.yes" color="255,230,230" fill="1" layer="-1.00" shape="10314.667516,652.969402 10341.452385,659.227343 10344.688920,645.558831 10317.903902,639.289812 10314.667516,652.969402"/>
    <poly id="353193503" type="building.yes" color="255,230,230" fill="1" layer="-1.00" shape="10071.144093,685.257258 10081.879200,685.295346 10081.917680,674.399751 10071.182566,674.361663 10071.144093,685.257258"/>
    <poly id="353193505" type="building.yes" color="255,230,230" fill="1" layer="-1.00" shape="10443.555867,908.377864 10459.556847,909.637853 10460.893750,892.869595 10444.892888,891.620675 10443.555867,908.377864"/>
    <poly id="353193508" type="building.yes" color="255,230,230" fill="1" layer="-1.00" shape="10391.720066,603.012775 10405.737222,608.227022 10417.775649,576.295227 10403.758474,571.080969 10391.720066,603.012775"/>
    <poly id="353193509" type="building.yes" color="255,230,230" fill="1" layer="-1.00" shape="10419.192059,963.121358 10433.199104,963.973241 10433.842562,953.491211 10419.846032,952.639202 10419.192059,963.121358"/>
    <poly id="353193510" type="building.yes" color="255,230,230" fill="1" layer="-1.00" shape="10413.904138,984.808468 10429.818899,985.903367 10430.546533,975.420334 10414.631763,974.325434 10413.904138,984.808468"/>
    <poly id="353193513" type="building.yes" color="255,230,230" fill="1" layer="-1.00" shape="10109.692046,674.489370 10118.505370,675.757270 10120.576458,661.449327 10111.763260,660.192497 10109.692046,674.489370"/>
    <poly id="353193516" type="building.yes" color="255,230,230" fill="1" layer="-1.00" shape="10110.464131,719.832268 10114.155769,720.519029 10112.908707,727.144053 10127.981202,729.953892 10129.861733,719.966414 10111.097591,716.469812 10110.464131,719.832268"/>
    <poly id="353193518" type="building.yes" color="255,230,230" fill="1" layer="-1.00" shape="10359.174732,972.040595 10362.039487,972.227923 10361.762996,976.405464 10375.844355,977.311779 10376.510933,967.006624 10359.575465,965.923926 10359.174732,972.040595"/>
    <poly id="353193521" type="building.yes" color="255,230,230" fill="1" layer="-1.00" shape="10468.776112,1006.908722 10474.388936,1007.207294 10474.344626,1007.905374 10476.977351,1008.051192 10477.011007,1007.342166 10481.054797,1007.559766 10481.667349,996.247688 10469.378134,995.596768 10468.776112,1006.908722"/>
    <poly id="353193522" type="building.yes" color="255,230,230" fill="1" layer="-1.00" shape="10080.650236,743.749559 10086.286090,745.088543 10085.824620,746.987407 10092.135901,748.484424 10092.586716,746.574615 10095.995692,747.386538 10097.950726,739.236167 10082.605264,735.599186 10080.650236,743.749559"/>
    <poly id="353193523" type="building.yes" color="255,230,230" fill="1" layer="-1.00" shape="10488.960621,1021.018121 10504.177319,1022.708219 10505.796427,1008.427868 10498.072128,1007.567587 10497.557939,1012.113337 10493.279494,1011.632792 10493.812751,1006.920731 10490.598655,1006.560385 10488.960621,1021.018121"/>
    <poly id="353196883" type="building.yes" color="255,230,230" fill="1" layer="-1.00" shape="10286.820550,480.673208 10299.244732,482.905773 10302.178026,466.749606 10311.385381,468.400444 10318.240212,430.695224 10308.969571,429.034062 10310.480944,420.734002 10301.895730,419.186476 10303.169320,412.129342 10299.393450,411.443540 10296.065205,429.785648 10304.027988,431.207717 10298.062486,464.052697 10290.099716,462.630632 10286.820550,480.673208"/>
    <poly id="353196889" type="building.yes" color="255,230,230" fill="1" layer="-1.00" shape="10378.129629,448.893564 10372.764709,427.001125 10376.353624,426.127977 10373.941953,416.269152 10370.353037,417.142300 10360.552419,377.155222 10363.427767,376.456653 10360.419383,364.213323 10357.113651,365.005595 10353.599748,346.545668 10352.742894,345.293631 10337.155388,350.517108 10340.705531,365.832077 10334.897460,376.552759 10336.544192,383.154370 10347.856525,389.231219 10353.076709,407.803696 10345.805544,427.344253 10356.756757,437.566433 10363.334100,450.796991 10378.129629,448.893564"/>
    <poly id="353203898" type="building.yes" color="255,230,230" fill="1" layer="-1.00" shape="10790.646915,1064.110283 10804.064961,1062.345316 10803.833722,1060.598649 10810.737082,1059.686179 10808.748669,1044.684772 10796.728119,1046.267040 10795.965476,1040.540680 10788.158496,1041.574618 10789.106607,1048.738166 10788.612711,1048.799398 10790.646915,1064.110283"/>
    <poly id="353203900" type="building.yes" color="255,230,230" fill="1" layer="-1.00" shape="10786.289677,1101.265186 10796.368811,1100.148874 10797.263786,1108.154544 10807.994514,1106.964060 10807.087048,1098.792454 10816.146826,1097.798992 10815.380238,1090.854732 10802.957236,1092.220337 10801.815107,1082.014227 10795.729740,1082.684461 10796.600380,1090.413614 10785.217911,1091.667213 10786.289677,1101.265186"/>
    <poly id="353203904" type="building.yes" color="255,230,230" fill="1" layer="-1.00" shape="10203.655329,773.695414 10215.947832,769.308246 10221.051794,783.419950 10231.279913,779.777089 10225.903791,764.904638 10237.798159,760.666169 10234.794325,752.342386 10220.552514,757.417105 10222.206830,762.003462 10216.537309,764.019742 10214.817877,759.268076 10200.314197,764.445582 10203.655329,773.695414"/>
    <poly id="353203906" type="building.yes" color="255,230,230" fill="1" layer="-1.00" shape="10825.612158,1003.417386 10834.842314,1001.702217 10831.483231,983.827243 10838.991266,982.431494 10842.058471,998.770896 10853.525308,996.641629 10850.559393,980.854636 10856.376865,979.777934 10859.163103,994.614850 10870.094351,992.580536 10865.567565,968.541123 10820.624289,976.892201 10825.612158,1003.417386"/>
    <poly id="353203908" type="building.yes" color="255,230,230" fill="1" layer="-1.00" shape="10833.771605,1105.539395 10841.695751,1104.625875 10842.399455,1110.707247 10858.153306,1108.903485 10857.285059,1101.373604 10865.766237,1100.398114 10864.042245,1085.504287 10855.371790,1086.493098 10855.665107,1089.036229 10837.767170,1091.075844 10837.473981,1088.543784 10831.882775,1089.174917 10833.771605,1105.539395"/>
    <poly id="353203912" type="building.yes" color="255,230,230" fill="1" layer="-1.00" shape="10662.866893,789.011431 10676.634203,784.739910 10670.880527,766.406243 10668.930302,767.016263 10667.836574,763.541509 10669.052851,763.161662 10662.325527,741.717198 10661.098726,742.097172 10659.906474,738.302494 10661.133275,737.922521 10656.834509,724.232974 10648.896929,726.685759 10647.715459,722.913098 10642.619503,724.490601 10662.866893,789.011431"/>
    <poly id="353203914" type="building.yes" color="255,230,230" fill="1" layer="-1.00" shape="10826.574110,1059.564387 10833.805639,1058.814110 10833.449575,1055.419162 10839.009883,1054.843759 10839.544042,1059.941716 10848.615020,1059.003500 10848.306575,1056.073021 10856.904572,1055.184719 10855.384973,1040.664919 10845.998576,1041.629023 10845.463760,1036.475713 10831.978087,1037.864994 10832.737567,1045.097217 10825.138011,1045.874014 10826.574110,1059.564387"/>
    <poly id="353203918" type="building.yes" color="255,230,230" fill="1" layer="-1.00" shape="10871.108826,1085.043861 10882.977960,1083.120199 10881.242675,1072.588970 10881.463251,1072.553132 10880.487161,1066.574646 10882.514434,1066.251608 10881.573595,1060.582726 10886.972382,1059.699234 10886.314071,1055.665687 10878.205235,1056.979980 10877.331475,1051.642469 10864.737589,1053.685466 10865.486661,1058.271546 10868.543291,1057.781264 10869.258164,1062.146306 10867.398985,1062.445204 10871.108826,1085.043861"/>
    <poly id="353203920" type="building.yes" color="255,230,230" fill="1" layer="-1.00" shape="10795.839146,1029.027043 10805.147551,1027.698457 10804.585239,1023.774492 10804.259570,1023.822652 10802.986050,1014.957846 10802.317720,1010.082928 10801.361624,1010.216087 10800.811282,1006.413775 10797.510001,1007.571310 10793.919214,1007.392546 10794.228717,1009.525811 10793.797954,1009.586292 10795.151058,1018.948403 10794.342014,1019.057670 10794.858422,1022.661085 10795.839146,1029.027043"/>
    <poly id="353203929" type="building.yes" color="255,230,230" fill="1" layer="-1.00" shape="10619.296847,850.028433 10622.888065,850.240379 10622.389279,858.738733 10636.996292,859.594715 10637.400667,852.891190 10640.770647,853.083626 10641.568748,839.665631 10638.093409,839.463375 10638.355100,834.920637 10639.555594,834.983865 10639.897637,829.233296 10632.831074,828.819091 10632.926676,827.123899 10627.892678,826.829461 10628.033124,824.480472 10617.954603,823.891725 10617.351406,834.229316 10620.215912,834.394545 10619.296847,850.028433"/>
    <poly id="353203934" type="building.yes" color="255,230,230" fill="1" layer="-1.00" shape="10193.107311,656.000929 10201.181283,653.513103 10196.978702,639.977490 10188.904593,642.454247 10193.107311,656.000929"/>
    <poly id="353203939" type="building.yes" color="255,230,230" fill="1" layer="-1.00" shape="10298.352458,678.375298 10308.179598,679.055453 10309.195795,664.527594 10299.368779,663.858509 10298.352458,678.375298"/>
    <poly id="353203946" type="building.yes" color="255,230,230" fill="1" layer="-1.00" shape="10163.260756,712.515264 10171.081856,730.314864 10179.143653,726.808519 10171.322561,709.008916 10163.260756,712.515264"/>
    <poly id="353203947" type="building.yes" color="255,230,230" fill="1" layer="-1.00" shape="10266.347443,844.364645 10274.928012,846.421514 10279.672541,826.833488 10271.091964,824.776616 10266.347443,844.364645"/>
    <poly id="353203948" type="building.yes" color="255,230,230" fill="1" layer="-1.00" shape="10420.690835,696.527511 10427.809132,684.484721 10421.959113,681.066596 10414.830295,693.109514 10420.690835,696.527511"/>
    <poly id="353203951" type="building.yes" color="255,230,230" fill="1" layer="-1.00" shape="10278.294931,648.464401 10288.682138,648.451394 10288.675303,635.507983 10278.288088,635.520989 10278.294931,648.464401"/>
    <poly id="353203959" type="building.yes" color="255,230,230" fill="1" layer="-1.00" shape="10407.162543,681.098807 10412.930158,670.522559 10405.155517,666.330148 10399.388036,676.917469 10407.162543,681.098807"/>
    <poly id="353203963" type="building.yes" color="255,230,230" fill="1" layer="-1.00" shape="10177.202216,665.457975 10186.421835,662.845765 10182.271034,648.357321 10173.051276,650.958461 10177.202216,665.457975"/>
    <poly id="353203973" type="building.yes" color="255,230,230" fill="1" layer="-1.00" shape="10349.706906,669.249103 10359.892392,671.740871 10364.240029,654.161693 10354.054536,651.669922 10349.706906,669.249103"/>
    <poly id="353203976" type="building.yes" color="255,230,230" fill="1" layer="-1.00" shape="10686.939354,864.570114 10701.260625,860.867775 10685.272993,799.662234 10668.780348,803.966158 10686.939354,864.570114"/>