<?xml version="1.0" encoding="UTF-8"?>

<!-- generated on 2021-12-06 02:05:03 by Eclipse SUMO polyconvert Version 1.9.2
<configuration xmlns:xsi="http://www.w3.org/2001/XMLSchema-instance" xsi:noNamespaceSchemaLocation="http://sumo.dlr.de/xsd/polyconvertConfiguration.xsd">

    <input>
        <net-file value="osm.net.xml"/>
        <osm-files value="osm_bbox.osm.xml"/>
        <osm.keep-full-type value="true"/>
        <type-file value="C:\Program%20Files%20(x86)\Eclipse\Sumo\data\typemap\osmPolyconvert.typ.xml"/>
    </input>

    <output>
        <output-file value="osm.poly.xml"/>
    </output>

    <processing>
        <poi-layer-offset value="5"/>
    </processing>

    <report>
        <verbose value="true"/>
    </report>

</configuration>
-->

<additional xmlns:xsi="http://www.w3.org/2001/XMLSchema-instance" xsi:noNamespaceSchemaLocation="http://sumo.dlr.de/xsd/additional_file.xsd">
    <location netOffset="-279383.83,-2115360.89" convBoundary="-8707.31,-431.32,4111.50,2791.64" origBoundary="72.819690,19.115651,72.941679,19.143641" projParameter="+proj=utm +zone=43 +ellps=WGS84 +datum=WGS84 +units=m +no_defs"/>

    <poly id="156931858" type="landuse.residential" color="235,235,227" fill="1" layer="-3.00" shape="1969.980928,727.355864 1905.100904,730.928812 1900.086183,688.902806 1895.261992,616.005077 1885.035619,515.402386 1891.103727,503.538251 1891.767231,438.990170 1888.883641,410.679491 1886.538345,356.840858 1902.390214,360.582969 1921.335113,377.508581 1912.075625,462.609335 1917.063587,502.387988 1930.377704,521.063547 1950.823671,531.482978 1960.391427,537.791109 2002.242696,687.123198 1969.980928,727.355864"/>
    <poly id="177566574" type="landuse.residential" color="235,235,227" fill="1" layer="-3.00" shape="1554.230560,-92.480418 1591.507097,-32.480800 1636.058456,39.235295 1663.568429,147.903192 1716.944219,292.602390 1723.270987,357.288773 1680.877516,400.443823 1619.050727,345.896152 1597.594853,346.151677 1578.669667,424.569506 1685.409861,446.993050 1777.510183,508.288972 1753.995938,535.419081 1770.053159,577.645819 1754.401857,590.742371 1766.549146,621.899087 1817.888628,612.430285 1823.879784,640.980796 1804.039652,921.101654 1824.247690,922.167673 1818.279593,976.902488 1829.979828,977.593659 1841.185025,933.149097 1875.307257,929.930712 1869.378458,865.040284 1840.613110,870.055060 1857.856959,716.631888 1895.219241,706.189138 1879.970678,515.163685 1884.267995,496.876557 1886.708087,441.010136 1877.078038,328.608406 1788.108129,263.321888 1730.558427,234.775984 1717.312343,154.648644 1746.363735,80.716630 1728.095861,40.243462 1689.265383,3.491738 1627.859946,-23.524367 1612.636250,-54.910150 1593.098281,-83.576135 1575.070839,-151.544513 1478.195057,-321.844858 1460.697964,-368.217486 1463.982869,-424.658793 1435.107921,-431.323549 1427.535941,-403.452989 1425.046679,-375.642983 1426.038909,-339.182719 1446.730712,-278.199553 1536.435802,-123.226561 1554.230560,-92.480418"/>
    <poly id="353182374" type="building.yes" color="255,230,230" fill="1" layer="-1.00" shape="1681.785422,702.971785 1693.943036,703.170263 1694.094714,693.812386 1681.937094,693.613907 1681.785422,702.971785"/>
    <poly id="353182377" type="building.yes" color="255,230,230" fill="1" layer="-1.00" shape="1667.827206,676.177008 1682.304328,678.495880 1683.784876,669.376842 1669.307879,667.069039 1667.827206,676.177008"/>
    <poly id="353182379" type="building.yes" color="255,230,230" fill="1" layer="-1.00" shape="1755.336423,865.522832 1773.992389,868.810661 1776.193014,856.527464 1757.536905,853.228560 1755.336423,865.522832"/>
    <poly id="353182380" type="building.yes" color="255,230,230" fill="1" layer="-1.00" shape="1652.378268,728.345318 1664.653198,728.675245 1667.694572,698.622089 1656.545114,697.359756 1652.378268,728.345318"/>
    <poly id="353182383" type="building.yes" color="255,230,230" fill="1" layer="-1.00" shape="1679.445719,722.132535 1693.501616,723.548502 1694.481805,713.948242 1680.425769,712.521203 1679.445719,722.132535"/>
    <poly id="353182389" type="building.yes" color="255,230,230" fill="1" layer="-1.00" shape="1659.371938,671.383750 1667.868409,672.566956 1670.469091,654.111722 1661.983134,652.928389 1659.371938,671.383750"/>
    <poly id="353182392" type="building.yes" color="255,230,230" fill="1" layer="-1.00" shape="1609.031287,656.017076 1632.855239,662.874939 1638.183740,644.597583 1614.359768,637.739711 1609.031287,656.017076"/>
    <poly id="353182394" type="building.yes" color="255,230,230" fill="1" layer="-1.00" shape="1684.859393,675.653099 1695.949174,678.089822 1700.204538,658.950558 1689.114746,656.513831 1684.859393,675.653099"/>
    <poly id="353182403" type="building.yes" color="255,230,230" fill="1" layer="-1.00" shape="1622.418457,734.703316 1636.093671,735.082979 1636.257921,729.434161 1642.679692,729.612340 1642.909904,721.548981 1622.802515,721.002333 1622.418457,734.703316"/>
    <poly id="353193443" type="building.yes" color="255,230,230" fill="1" layer="-1.00" shape="1739.398448,687.437934 1747.363241,688.162469 1748.743725,673.287050 1745.635751,673.002951 1746.268788,666.064175 1732.983507,664.849363 1732.209769,673.229210 1739.753140,673.914470 1739.175334,680.188253 1743.642428,680.600112 1743.391134,683.360098 1739.798466,683.026409 1739.398448,687.437934"/>
    <poly id="353193446" type="building.yes" color="255,230,230" fill="1" layer="-1.00" shape="1766.838075,788.522217 1776.762639,789.444877 1776.836672,788.591431 1783.452960,789.199160 1783.379058,790.063677 1794.188561,791.064391 1795.039116,782.063586 1789.265680,781.534399 1789.144568,782.853441 1783.423744,782.323629 1783.516978,781.314943 1767.650349,779.842961 1766.838075,788.522217"/>
    <poly id="353193485" type="building.yes" color="255,230,230" fill="1" layer="-1.00" shape="1762.797806,763.845932 1772.875214,764.346026 1772.626197,769.065776 1776.311705,769.243354 1776.243337,770.572840 1789.890631,771.262969 1790.156217,766.166565 1793.283769,766.328642 1793.386454,764.345484 1798.209313,764.587035 1799.670573,736.158207 1790.572405,735.701804 1789.956823,747.645034 1793.358095,747.814926 1793.118014,752.401702 1790.169605,752.259637 1789.605829,763.250037 1774.831832,762.506884 1776.308303,733.590690 1765.599001,733.053825 1765.454776,735.967548 1766.792189,736.040207 1766.399738,743.740105 1763.840924,743.615552 1763.446629,751.160460 1765.131416,751.240056 1764.839539,756.779665 1763.165144,756.688873 1762.797806,763.845932"/>
    <poly id="353193492" type="building.yes" color="255,230,230" fill="1" layer="-1.00" shape="1732.859097,748.989030 1747.405965,750.100238 1748.299584,738.530151 1733.763230,737.418815 1732.859097,748.989030"/>
    <poly id="353193500" type="building.yes" color="255,230,230" fill="1" layer="-1.00" shape="1675.139387,785.594734 1682.068217,786.818753 1683.607558,778.219410 1676.678857,777.006461 1675.139387,785.594734"/>
    <poly id="353193505" type="building.yes" color="255,230,230" fill="1" layer="-1.00" shape="1736.245867,714.347864 1752.246847,715.607853 1753.583750,698.839595 1737.582888,697.590675 1736.245867,714.347864"/>
    <poly id="353193509" type="building.yes" color="255,230,230" fill="1" layer="-1.00" shape="1711.882059,769.091358 1725.889104,769.943241 1726.532562,759.461211 1712.536032,758.609202 1711.882059,769.091358"/>
    <poly id="353193510" type="building.yes" color="255,230,230" fill="1" layer="-1.00" shape="1706.594138,790.778468 1722.508899,791.873367 1723.236533,781.390334 1707.321763,780.295434 1706.594138,790.778468"/>
    <poly id="353193518" type="building.yes" color="255,230,230" fill="1" layer="-1.00" shape="1651.864732,778.010595 1654.729487,778.197923 1654.452996,782.375464 1668.534355,783.281779 1669.200933,772.976624 1652.265465,771.893926 1651.864732,778.010595"/>
    <poly id="353193521" type="building.yes" color="255,230,230" fill="1" layer="-1.00" shape="1761.466112,812.878722 1767.078936,813.177294 1767.034626,813.875374 1769.667351,814.021192 1769.701007,813.312166 1773.744797,813.529766 1774.357349,802.217688 1762.068134,801.566768 1761.466112,812.878722"/>
    <poly id="353193523" type="building.yes" color="255,230,230" fill="1" layer="-1.00" shape="1781.650621,826.988121 1796.867319,828.678219 1798.486427,814.397868 1790.762128,813.537587 1790.247939,818.083337 1785.969494,817.602792 1786.502751,812.890731 1783.288655,812.530385 1781.650621,826.988121"/>
    <poly id="353203904" type="building.yes" color="255,230,230" fill="1" layer="-1.00" shape="1496.345329,579.665414 1508.637832,575.278246 1513.741794,589.389950 1523.969913,585.747089 1518.593791,570.874638 1530.488159,566.636169 1527.484325,558.312386 1513.242514,563.387105 1514.896830,567.973462 1509.227309,569.989742 1507.507877,565.238076 1493.004197,570.415582 1496.345329,579.665414"/>
    <poly id="353203912" type="building.yes" color="255,230,230" fill="1" layer="-1.00" shape="1955.556893,594.981431 1969.324203,590.709910 1963.570527,572.376243 1961.620302,572.986263 1960.526574,569.511509 1961.742851,569.131662 1955.015527,547.687198 1953.788726,548.067172 1952.596474,544.272494 1953.823275,543.892521 1949.524509,530.202974 1941.586929,532.655759 1940.405459,528.883098 1935.309503,530.460601 1955.556893,594.981431"/>
    <poly id="353203929" type="building.yes" color="255,230,230" fill="1" layer="-1.00" shape="1911.986847,655.998433 1915.578065,656.210379 1915.079279,664.708733 1929.686292,665.564715 1930.090667,658.861190 1933.460647,659.053626 1934.258748,645.635631 1930.783409,645.433375 1931.045100,640.890637 1932.245594,640.953865 1932.587637,635.203296 1925.521074,634.789091 1925.616676,633.093899 1920.582678,632.799461 1920.723124,630.450472 1910.644603,629.861725 1910.041406,640.199316 1912.905912,640.364545 1911.986847,655.998433"/>
    <poly id="353203947" type="building.yes" color="255,230,230" fill="1" layer="-1.00" shape="1559.037443,650.334645 1567.618012,652.391514 1572.362541,632.803488 1563.781964,630.746616 1559.037443,650.334645"/>
    <poly id="353203976" type="building.yes" color="255,230,230" fill="1" layer="-1.00" shape="1979.629354,670.540114 1993.950625,666.837775 1977.962993,605.632234 1961.470348,609.936158 1979.629354,670.540114"/>
    <poly id="353204016" type="building.yes" color="255,230,230" fill="1" layer="-1.00" shape="1541.164983,646.583706 1555.490017,650.266186 1557.995917,640.647735 1543.681398,636.965127 1541.164983,646.583706"/>
    <poly id="353204033" type="building.yes" color="255,230,230" fill="1" layer="-1.00" shape="1528.320436,595.804246 1541.505876,598.348781 1543.341630,589.015120 1537.751589,587.985566 1530.145661,586.470709 1528.320436,595.804246"/>
    <poly id="353204036" type="building.yes" color="255,230,230" fill="1" layer="-1.00" shape="1753.183624,585.652556 1762.148783,581.116940 1758.097543,573.204199 1760.650037,571.911579 1756.555518,563.899704 1745.037857,569.727943 1753.183624,585.652556"/>
    <poly id="353204037" type="building.yes" color="255,230,230" fill="1" layer="-1.00" shape="1540.357089,645.906850 1542.893158,637.937807 1529.125087,632.421772 1518.135546,620.738593 1513.856964,625.550659 1524.979930,638.715932 1540.357089,645.906850"/>
    <poly id="353204050" type="building.yes" color="255,230,230" fill="1" layer="-1.00" shape="1708.744556,633.736968 1715.979341,633.252233 1715.787894,630.431084 1720.141472,630.146736 1720.322396,632.968011 1723.655943,632.751170 1722.965946,622.528606 1708.065205,623.525350 1708.744556,633.736968"/>
    <poly id="353785590" type="building.apartments" color="255,230,230" fill="1" layer="-1.00" shape="1515.934758,971.224825 1525.505881,966.338601 1519.570166,954.838801 1528.942560,950.054599 1524.482716,941.416003 1514.806884,946.347763 1507.621397,932.415884 1498.154823,937.245507 1505.641673,951.738478 1496.007807,956.658676 1499.875208,964.152810 1509.686895,959.141916 1515.934758,971.224825"/>
    <poly id="353785596" type="building.yes" color="255,230,230" fill="1" layer="-1.00" shape="1610.063421,589.814704 1620.557673,591.727012 1618.906937,600.693073 1630.287057,602.760919 1631.127288,598.200206 1658.443963,603.178515 1660.935088,589.662820 1653.710363,588.342675 1654.619777,583.404683 1643.650954,581.409429 1645.628516,570.723277 1634.849487,568.758984 1633.426126,576.493312 1620.347894,574.113518 1619.438489,579.051512 1613.268521,577.929193 1612.784164,580.559091 1611.803319,580.382545 1610.063421,589.814704"/>
    <poly id="354010754" type="building.bungalow" color="255,230,230" fill="1" layer="-1.00" shape="1287.385663,1010.776607 1288.077148,1021.984601 1296.731912,1021.449525 1296.052142,1010.341042 1304.760712,1009.904979 1304.254104,1000.078818 1276.361545,1001.485606 1276.857514,1011.300822 1287.385663,1010.776607"/>
    <poly id="354026114" type="building.yes" color="255,230,230" fill="1" layer="-1.00" shape="1777.774689,886.846656 1793.783136,887.862985 1794.457001,877.280948 1778.459067,876.264492 1777.774689,886.846656"/>
    <poly id="354067601" type="building.yes" color="255,230,230" fill="1" layer="-1.00" shape="1676.995034,766.439745 1689.883009,766.994903 1691.149951,738.169760 1678.261955,737.614599 1676.995034,766.439745"/>
    <poly id="354067609" type="building.yes" color="255,230,230" fill="1" layer="-1.00" shape="1736.716038,644.221580 1751.735409,643.467035 1751.141805,631.615701 1736.122292,632.359175 1736.716038,644.221580"/>
    <poly id="354067613" type="building.yes" color="255,230,230" fill="1" layer="-1.00" shape="1715.722273,674.421999 1729.900781,675.526513 1730.797958,664.255334 1716.619310,663.139747 1715.722273,674.421999"/>
    <poly id="354067615" type="building.yes" color="255,230,230" fill="1" layer="-1.00" shape="1730.374739,771.030282 1741.717085,771.703528 1742.287311,762.141370 1730.944959,761.468123 1730.374739,771.030282"/>
    <poly id="355017976" type="building.yes" color="255,230,230" fill="1" layer="-1.00" shape="1794.407036,662.634567 1810.716991,662.440467 1810.510417,645.081614 1794.200447,645.275712 1794.407036,662.634567"/>
    <poly id="355057949" type="building.yes" color="255,230,230" fill="1" layer="-1.00" shape="1468.039885,572.971844 1471.245853,579.709874 1488.325488,571.678218 1485.119526,564.940186 1468.039885,572.971844"/>
    <poly id="355057953" type="building.yes" color="255,230,230" fill="1" layer="-1.00" shape="1757.916491,847.101076 1770.520427,847.670738 1771.020126,836.603592 1758.416182,836.033929 1757.916491,847.101076"/>
    <poly id="355057956" type="building.office" color="255,230,230" fill="1" layer="-1.00" shape="1684.518457,966.946579 1695.744771,961.420690 1685.793058,941.420874 1674.566733,946.946768 1684.518457,966.946579"/>
    <poly id="355057959" type="building.yes" color="255,230,230" fill="1" layer="-1.00" shape="1723.485801,824.425290 1740.294018,825.432057 1741.287866,809.022191 1724.479634,808.015422 1723.485801,824.425290"/>
    <poly id="355057960" type="building.yes" color="255,230,230" fill="1" layer="-1.00" shape="1704.032710,806.343367 1720.433974,806.757061 1720.712543,795.681471 1704.311401,795.278847 1704.032710,806.343367"/>
    <poly id="483432031" type="landuse.military" color="153,153,92" fill="1" layer="-3.00" shape="1974.471999,1341.203826 1922.672016,1352.482674 1881.876129,1235.225628 1869.238416,1188.462822 1849.874065,1117.664672 1841.872303,1061.645648 1843.095339,1045.919545 1834.918980,1046.858345 1832.078379,1092.908499 1830.426542,1113.278989 1826.166797,1165.646162 1824.291517,1268.917406 1822.349691,1413.444745 1829.218908,1468.912567 1818.352218,1576.221546 1809.698209,1631.597379 1804.398996,1684.131995 1794.482305,1728.018789 1790.241963,1728.069282 1786.309449,1847.641370 1785.590624,1882.715844 1800.345347,1912.844967 1809.169396,1966.329724 1812.256845,2011.744669 1804.191034,2045.788336 1801.661823,2094.082534 1920.489787,2094.062855 2004.957516,2100.077454 2055.465555,2098.911874 2169.225298,2116.946506 2194.932087,2089.392059 2211.039347,2103.240203 2197.143080,2121.353523 2287.487689,2111.875885 2413.525251,2092.508004 2500.440124,2075.111235 2549.481839,2057.688247 2562.172368,2044.350607 2574.949238,2027.645995 2593.203838,1995.452782 2643.556810,1957.254099 2677.316044,1948.438763 2697.753314,1958.294235 2791.037200,1922.399241 2722.611500,1769.461707 2769.796893,1749.824849 2384.908203,998.512273 2368.006469,953.261412 2364.656420,909.532654 2361.436382,713.636699 2360.681689,697.934165 2352.472954,672.222243 2342.713727,657.744898 2331.336446,650.583365 2307.034289,648.624230 2270.529219,655.944627 2161.160925,677.860238 2101.553377,692.951397 2064.459870,707.420815 2039.873643,728.484623 2011.657721,777.072958 1944.792647,994.197896 1912.572112,1025.450654 1974.471999,1341.203826"/>
    <poly id="52511372" type="building.apartments" color="255,230,230" fill="1" layer="-1.00" shape="1274.918479,593.831716 1266.409865,590.755467 1262.822519,600.575104 1252.707468,596.931193 1249.140648,606.706299 1259.488249,610.436012 1256.002836,619.977628 1264.521961,623.053746 1267.935832,613.690142 1277.776094,617.237688 1281.343059,607.473658 1271.259716,603.840432 1274.918479,593.831716"/>
    <poly id="52511373" type="building.apartments" color="255,230,230" fill="1" layer="-1.00" shape="1327.988527,605.046081 1319.479931,601.969808 1315.892560,611.789432 1305.777529,608.145494 1302.210552,617.909517 1312.568656,621.639132 1309.083351,631.191806 1317.602460,634.267948 1321.016354,624.904356 1330.845942,628.440983 1334.412931,618.676967 1324.340262,615.054658 1327.988527,605.046081"/>
    <poly id="52511384" type="building.dormitory" color="255,230,230" fill="1" layer="-1.00" shape="1412.255622,1090.557888 1363.116028,1092.882270 1358.779417,979.874742 1405.316626,978.157173 1412.255622,1090.557888"/>
    <poly id="52511399" type="building.school" color="255,230,230" fill="1" layer="-1.00" shape="1616.087095,881.707882 1623.534544,896.433880 1647.972923,884.217946 1657.640440,903.324279 1644.626103,909.823700 1641.177306,903.011038 1632.358068,907.412130 1637.606836,917.790770 1628.473911,922.361685 1626.296690,918.047286 1620.009248,921.189203 1622.132540,925.393522 1614.746710,929.091067 1611.362490,922.399435 1614.281231,920.936341 1612.696850,917.799615 1606.963932,920.669197 1607.901671,922.529241 1587.428277,932.760348 1582.826127,923.658400 1606.333491,911.918532 1596.105302,891.689527 1616.087095,881.707882"/>
    <poly id="52511400" type="building.apartments" color="255,230,230" fill="1" layer="-1.00" shape="1533.114654,1014.024845 1548.143362,1014.078265 1548.053173,1018.873640 1557.241042,1018.919166 1557.394660,1000.016943 1562.921016,1000.128248 1562.947059,992.598783 1540.508075,992.423282 1540.489741,987.352393 1533.175235,987.317766 1533.135572,1006.949404 1527.779158,1006.968950 1527.758243,1014.044392 1533.114654,1014.024845"/>
    <poly id="617989951" type="amenity.university" color="237,199,199" fill="0" layer="-1.00" shape="1749.192056,2168.205329 1751.210133,2136.204525 1757.826021,2110.316218 1754.474381,2066.587398 1722.967279,2075.377670 1716.064229,1969.398472 1752.105221,1725.434280 1778.833069,1362.055996 1792.826686,1257.511066 1800.667148,1038.286405 1787.873122,1030.577385 1757.923128,988.217098 1706.892396,914.817605 1463.255220,638.632175 1449.809947,627.531916 1439.701281,617.355181 1154.232275,539.533773 966.474309,488.739242 937.931416,485.991033 722.070788,516.916282 696.117915,517.780275 665.242150,509.169905 626.003395,485.922345"/>
    <poly id="622286336" type="building.apartments" color="255,230,230" fill="1" layer="-1.00" shape="1267.893202,825.359850 1276.018016,825.384712 1276.086755,800.271910 1267.972584,800.257992 1267.893202,825.359850"/>
    <poly id="622286712" type="building.bungalow" color="255,230,230" fill="1" layer="-1.00" shape="1288.145326,666.895057 1283.940721,654.964984 1298.215171,649.989334 1302.419768,661.919409 1288.145326,666.895057"/>
    <poly id="622286713" type="building.bungalow" color="255,230,230" fill="1" layer="-1.00" shape="1297.773681,693.265147 1292.469331,678.247946 1306.680761,673.284126 1311.985100,688.301329 1297.773681,693.265147"/>
    <poly id="622286714" type="building.bungalow" color="255,230,230" fill="1" layer="-1.00" shape="1303.897949,724.083811 1299.179175,708.749601 1315.400918,703.806094 1320.119679,719.140307 1303.897949,724.083811"/>
    <poly id="622286715" type="building.bungalow" color="255,230,230" fill="1" layer="-1.00" shape="1308.090867,750.917341 1303.563794,736.654857 1316.711783,732.534147 1321.228324,746.796758 1308.090867,750.917341"/>
    <poly id="622291397" type="building.bungalow" color="255,230,230" fill="0" layer="-1.00" shape="1309.415992,918.469733 1312.670410,923.092350 1295.605307,934.955061 1292.395354,930.531217"/>
    <poly id="622291398" type="building.bungalow" color="255,230,230" fill="1" layer="-1.00" shape="1286.402284,922.176693 1305.937968,908.335778 1311.931033,916.690308 1309.415992,918.469733 1292.395354,930.531217 1286.402284,922.176693"/>
    <poly id="622291400" type="building.bungalow" color="255,230,230" fill="1" layer="-1.00" shape="1293.485329,876.341438 1298.299764,882.052673 1304.489485,876.896648 1309.709449,883.079157 1318.785632,875.519233 1308.751237,863.625482 1293.485329,876.341438"/>
    <poly id="622291402" type="building.bungalow" color="255,230,230" fill="1" layer="-1.00" shape="1313.756245,838.553453 1325.051963,826.493850 1334.991143,835.698178 1323.705948,847.757648 1313.756245,838.553453"/>
    <poly id="622291404" type="building.bungalow" color="255,230,230" fill="1" layer="-1.00" shape="1333.209615,802.801482 1325.280208,796.219462 1334.235558,785.582894 1344.397269,794.031658 1335.452441,804.668095 1333.209615,802.801482"/>
    <poly id="622291405" type="building.bungalow" color="255,230,230" fill="1" layer="-1.00" shape="1366.459717,759.079042 1356.279160,749.932935 1346.306923,760.902713 1354.157832,767.961788 1356.889740,764.950760 1359.219388,767.037787 1366.459717,759.079042"/>
    <poly id="622291407" type="building.bungalow" color="255,230,230" fill="1" layer="-1.00" shape="1403.305066,684.997878 1396.066794,677.244995 1394.640646,678.557457 1392.945778,676.750736 1383.119266,685.825386 1390.666654,693.906748 1394.185000,690.653833 1395.570752,692.132071 1403.305066,684.997878"/>
    <poly id="622291409" type="building.bungalow" color="255,230,230" fill="1" layer="-1.00" shape="1405.523038,648.587882 1402.728196,650.736011 1400.718801,648.146907 1398.455727,649.879021 1392.812688,642.638588 1389.725853,645.011646 1387.053892,641.577876 1397.284288,633.716368 1399.560841,636.645528 1402.574547,634.317633 1410.622650,644.673927 1405.523038,648.587882"/>
    <poly id="622297224" type="building.bungalow" color="255,230,230" fill="1" layer="-1.00" shape="1386.022679,719.262312 1375.842113,710.116194 1365.869842,721.085957 1373.720758,728.145041 1376.452675,725.134017 1378.782324,727.221047 1386.022679,719.262312"/>
    <poly id="622413778" type="building.apartments" color="255,230,230" fill="1" layer="-1.00" shape="1354.345169,934.564419 1375.060897,945.544670 1382.082191,932.462062 1361.355932,921.481927 1354.345169,934.564419"/>
    <poly id="622413779" type="building.apartments" color="255,230,230" fill="1" layer="-1.00" shape="1375.410327,888.363160 1397.777615,887.808559 1397.387295,870.961179 1375.490065,871.222294 1375.410327,888.363160"/>
    <poly id="622413781" type="building.apartments" color="255,230,230" fill="1" layer="-1.00" shape="1413.421260,804.380525 1430.193143,819.106016 1440.204048,807.847945 1423.432164,793.122444 1413.421260,804.380525"/>
    <poly id="622413782" type="building.apartments" color="255,230,230" fill="1" layer="-1.00" shape="1441.613924,758.382285 1459.513413,755.578001 1456.565724,736.956329 1438.666084,739.749544 1441.613924,758.382285"/>
    <poly id="622413786" type="building.apartments" color="255,230,230" fill="1" layer="-1.00" shape="1421.594033,923.177372 1432.766648,933.452121 1441.837760,923.700007 1430.665146,913.425252 1421.594033,923.177372"/>
    <poly id="622413787" type="building.apartments" color="255,230,230" fill="1" layer="-1.00" shape="1451.857166,873.434149 1469.046440,861.381893 1460.547501,849.392261 1443.347696,861.444650 1451.857166,873.434149"/>
    <poly id="622413789" type="building.apartments" color="255,230,230" fill="1" layer="-1.00" shape="1470.912358,804.259853 1485.225950,814.054306 1494.909668,800.065314 1480.585682,790.282048 1470.912358,804.259853"/>
    <poly id="622413791" type="building.apartments" color="255,230,230" fill="1" layer="-1.00" shape="1490.593202,746.947633 1503.650650,759.071183 1516.080033,745.868835 1503.022454,733.734205 1490.593202,746.947633"/>
    <poly id="622415799" type="building.apartments" color="255,230,230" fill="1" layer="-1.00" shape="1483.807988,686.252715 1476.926468,692.535212 1462.522463,676.928881 1469.393462,670.646504 1483.807988,686.252715"/>
    <poly id="622525941" type="building.apartments" color="255,230,230" fill="1" layer="-1.00" shape="1522.091483,769.901564 1523.427471,755.724191 1545.194289,757.756784 1543.858153,771.923083 1522.091483,769.901564"/>
    <poly id="622525943" type="building.apartments" color="255,230,230" fill="1" layer="-1.00" shape="1535.430711,803.025900 1546.276046,808.798197 1556.067787,790.622631 1545.232968,784.850202 1535.430711,803.025900"/>
    <poly id="622525945" type="building.apartments" color="255,230,230" fill="1" layer="-1.00" shape="1551.686487,755.896791 1564.988439,777.063521 1573.732330,771.633578 1560.440908,750.466717 1551.686487,755.896791"/>
    <poly id="622525946" type="building.apartments" color="255,230,230" fill="1" layer="-1.00" shape="1595.646012,801.898795 1595.909592,797.522104 1596.163442,793.211963 1570.192694,791.650147 1569.664884,800.348177 1595.646012,801.898795"/>
    <poly id="622525949" type="building.apartments" color="255,230,230" fill="1" layer="-1.00" shape="1624.438725,859.253465 1624.790493,848.143778 1647.793660,848.844152 1647.431382,860.839744 1624.417707,860.139498 1624.438725,859.253465"/>
    <poly id="622525951" type="building.apartments" color="255,230,230" fill="1" layer="-1.00" shape="1653.059325,874.779146 1667.145255,895.515846 1675.262643,890.503083 1661.611567,870.049078 1653.059325,874.779146"/>
    <poly id="622525953" type="building.apartments" color="255,230,230" fill="1" layer="-1.00" shape="1674.009402,917.822243 1696.362301,917.832858 1696.369876,906.096156 1674.016963,906.085540 1674.009402,917.822243"/>
    <poly id="622528572" type="building.apartments" color="255,230,230" fill="1" layer="-1.00" shape="1531.345902,885.031635 1532.326251,875.453497 1554.274051,877.672157 1553.283169,887.250418 1531.345902,885.031635"/>
    <poly id="622528574" type="building.apartments" color="255,230,230" fill="1" layer="-1.00" shape="1527.518541,857.053288 1518.697178,839.199164 1526.562743,836.016262 1534.114808,853.331901 1527.518541,857.053288"/>
    <poly id="622533040" type="building.apartments" color="255,230,230" fill="1" layer="-1.00" shape="1611.893769,835.364978 1620.691045,830.000854 1609.165595,811.304195 1600.368312,816.668324 1611.893769,835.364978"/>
    <poly id="622533042" type="building.apartments" color="255,230,230" fill="1" layer="-1.00" shape="1605.077500,874.509183 1612.323020,866.982298 1593.801229,849.343353 1585.121020,858.348879 1603.653334,875.987690 1605.077500,874.509183"/>
    <poly id="622533045" type="building.apartments" color="255,230,230" fill="1" layer="-1.00" shape="1505.888326,885.899711 1496.190656,877.522847 1509.199669,862.630587 1518.897339,871.007458 1505.888326,885.899711"/>
    <poly id="622540260" type="building.apartments" color="255,230,230" fill="1" layer="-1.00" shape="1627.970614,992.311277 1647.545308,985.268659 1643.617634,974.475680 1624.043060,981.529372 1627.970614,992.311277"/>
    <poly id="622540261" type="building.apartments" color="255,230,230" fill="1" layer="-1.00" shape="1657.564113,982.624847 1652.476635,972.532162 1667.719538,964.943260 1672.807008,975.035949 1657.564113,982.624847"/>
    <poly id="622540262" type="building.apartments" color="255,230,230" fill="1" layer="-1.00" shape="1650.942001,947.947836 1658.016350,943.722545 1666.228952,957.310069 1659.154607,961.535357 1650.942001,947.947836"/>
    <poly id="622540263" type="building.apartments" color="255,230,230" fill="1" layer="-1.00" shape="1621.633052,973.574966 1610.348682,952.140589 1619.845519,947.199942 1631.129880,968.634324 1621.633052,973.574966"/>
    <poly id="622791282" type="leisure.playground" color="207,245,201" fill="1" layer="-2.00" shape="1540.068764,840.749269 1550.223248,849.486099 1559.516433,857.480280 1572.483551,842.599644 1577.622660,836.703323 1558.174858,819.961222 1540.068764,840.749269"/>
    <poly id="723512525" type="amenity.school" color="237,199,199" fill="1" layer="-1.00" shape="1717.871461,1102.406232 1722.616110,1097.854389 1725.910972,995.407682 1722.439197,988.429198 1702.849156,978.276672 1691.832731,977.566366 1681.414202,980.225991 1658.736683,995.366147 1641.261324,997.534089 1592.423707,997.839075 1581.814980,1007.498709 1534.595896,1095.045269 1540.309348,1101.144443 1717.871461,1102.406232"/>