<?xml version="1.0" encoding="UTF-8"?>

<!-- generated on 2021-12-05 22:05:05 by Eclipse SUMO polyconvert Version 1.9.2
<configuration xmlns:xsi="http://www.w3.org/2001/XMLSchema-instance" xsi:noNamespaceSchemaLocation="http://sumo.dlr.de/xsd/polyconvertConfiguration.xsd">

    <input>
        <net-file value="osm.net.xml"/>
        <osm-files value="osm_bbox.osm.xml"/>
        <osm.keep-full-type value="true"/>
        <type-file value="C:\Program%20Files%20(x86)\Eclipse\Sumo\data\typemap\osmPolyconvert.typ.xml"/>
    </input>

    <output>
        <output-file value="osm.poly.xml"/>
    </output>

    <processing>
        <poi-layer-offset value="5"/>
    </processing>

    <report>
        <verbose value="true"/>
    </report>

</configuration>
-->

<additional xmlns:xsi="http://www.w3.org/2001/XMLSchema-instance" xsi:noNamespaceSchemaLocation="http://sumo.dlr.de/xsd/additional_file.xsd">
    <location netOffset="-279383.83,-2115229.82" convBoundary="-8707.31,-805.65,4111.50,2922.71" origBoundary="72.819690,19.111013,72.941679,19.144398" projParameter="+proj=utm +zone=43 +ellps=WGS84 +datum=WGS84 +units=m +no_defs"/>

    <poly id="151581225" type="landuse.industrial" color="209,209,204" fill="1" layer="-3.00" shape="2117.034748,766.505330 2142.999867,661.298374 2174.156888,535.092222 2198.473156,284.781256 2290.973927,289.440499 2288.118010,358.266153 2384.676582,362.578701 2366.119979,548.601902 2360.063363,707.759536 2341.995763,729.221611 2271.371038,740.921993 2117.034748,766.505330"/>
    <poly id="151850841" type="landuse.residential" color="235,235,227" fill="1" layer="-3.00" shape="2317.215067,-122.558386 2175.081858,-184.547510 2094.568176,-209.411723 2057.454893,-223.885129 2036.736843,-219.043994 2031.638029,-162.769654 2027.849932,-92.737013 2043.108536,-22.930700 2054.496157,12.509094 2071.363972,23.779513 2090.049863,41.915277 2092.667816,68.269317 2078.547590,94.257539 2080.754115,133.814577 2084.761240,179.650327 2090.371648,215.158772 2084.435190,249.641830 2069.886978,337.019676 2068.073203,378.340695 2081.567378,397.113873 2084.873165,432.638632 2085.806325,462.456165 2067.581973,530.944199 2048.720620,595.409544 2047.989604,630.417606 2069.490019,642.784417 2127.948192,657.568714 2142.999867,661.298374 2174.156888,535.092222 2198.473156,284.781256 2290.973927,289.440499 2288.118010,358.266153 2384.676582,362.578701 2399.417941,239.026032 2312.142060,228.579861 2319.209354,143.029480 2246.370363,132.412226 2250.387027,82.462008 2257.324654,83.520085 2253.283800,34.805969 2339.382632,43.538667 2354.868678,-61.620811 2435.088567,-61.432047 2436.968210,-98.169800 2357.302745,-99.516679 2349.480241,-175.146762 2318.913846,-173.632553 2317.215067,-122.558386"/>
    <poly id="156931858" type="landuse.residential" color="235,235,227" fill="1" layer="-3.00" shape="1969.980928,858.425864 1905.100904,861.998812 1900.086183,819.972806 1895.261992,747.075077 1885.035619,646.472386 1891.103727,634.608251 1891.767231,570.060170 1888.883641,541.749491 1886.538345,487.910858 1902.390214,491.652969 1921.335113,508.578581 1912.075625,593.679335 1917.063587,633.457988 1930.377704,652.133547 1950.823671,662.552978 1960.391427,668.861109 2002.242696,818.193198 1969.980928,858.425864"/>
    <poly id="177566574" type="landuse.residential" color="235,235,227" fill="1" layer="-3.00" shape="1554.230560,38.589582 1591.507097,98.589200 1636.058456,170.305295 1663.568429,278.973192 1716.944219,423.672390 1723.270987,488.358773 1680.877516,531.513823 1619.050727,476.966152 1597.594853,477.221677 1578.669667,555.639506 1685.409861,578.063050 1777.510183,639.358972 1753.995938,666.489081 1770.053159,708.715819 1754.401857,721.812371 1766.549146,752.969087 1817.888628,743.500285 1823.879784,772.050796 1804.039652,1052.171654 1824.247690,1053.237673 1818.279593,1107.972488 1829.979828,1108.663659 1841.185025,1064.219097 1875.307257,1061.000712 1869.378458,996.110284 1840.613110,1001.125060 1857.856959,847.701888 1895.219241,837.259138 1879.970678,646.233685 1884.267995,627.946557 1886.708087,572.080136 1877.078038,459.678406 1788.108129,394.391888 1730.558427,365.845984 1717.312343,285.718644 1746.363735,211.786630 1728.095861,171.313462 1689.265383,134.561738 1627.859946,107.545633 1612.636250,76.159850 1593.098281,47.493865 1575.070839,-20.474513 1478.195057,-190.774858 1460.697964,-237.147486 1463.982869,-293.588793 1435.107921,-300.253549 1427.535941,-272.382989 1425.046679,-244.572983 1426.038909,-208.112719 1446.730712,-147.129553 1536.435802,7.843439 1554.230560,38.589582"/>
    <poly id="233081734" type="landuse.residential" color="235,235,227" fill="1" layer="-3.00" shape="2205.332548,1067.805923 2189.149695,890.886608 2067.461978,913.093159 2075.219938,1024.797444 2080.452284,1100.214776 2194.145426,1070.441161 2205.332548,1067.805923"/>
    <poly id="233081736" type="leisure.pitch" color="207,245,201" fill="1" layer="-2.00" shape="2227.613335,970.504121 2262.978410,971.789190 2263.390988,948.931193 2227.017291,948.676745 2227.613335,970.504121"/>
    <poly id="233081736#1" type="sport.basketball" color="79,230,125" fill="1" layer="-2.00" shape="2227.613335,970.504121 2262.978410,971.789190 2263.390988,948.931193 2227.017291,948.676745 2227.613335,970.504121"/>
    <poly id="266456488" type="building.university" color="255,230,230" fill="1" layer="-1.00" shape="1543.949398,1405.186651 1590.818276,1405.757480 1590.668154,1393.159006 1590.156322,1350.204633 1550.023653,1346.198605 1543.949398,1405.186651"/>
    <poly id="315477932" type="amenity.college" color="237,199,199" fill="1" layer="-1.00" shape="1460.896416,1339.001086 1466.219546,1359.144559 1472.447734,1360.753294 1475.574966,1338.826086 1489.658523,1336.410515 1500.962367,1337.405139 1512.272806,1338.953307 1518.494265,1339.997451 1520.355536,1354.003858 1521.053749,1365.787526 1520.095060,1379.827546 1514.642398,1395.604122 1508.467674,1398.479016 1445.760972,1395.295942 1437.791851,1389.777311 1435.429243,1381.390537 1434.136108,1367.377357 1434.002383,1356.162715 1442.318878,1343.153252 1444.510449,1338.078154 1455.249754,1338.503722 1460.896416,1339.001086"/>
    <poly id="315477932#1" type="building.university" color="255,230,230" fill="1" layer="-1.00" shape="1460.896416,1339.001086 1466.219546,1359.144559 1472.447734,1360.753294 1475.574966,1338.826086 1489.658523,1336.410515 1500.962367,1337.405139 1512.272806,1338.953307 1518.494265,1339.997451 1520.355536,1354.003858 1521.053749,1365.787526 1520.095060,1379.827546 1514.642398,1395.604122 1508.467674,1398.479016 1445.760972,1395.295942 1437.791851,1389.777311 1435.429243,1381.390537 1434.136108,1367.377357 1434.002383,1356.162715 1442.318878,1343.153252 1444.510449,1338.078154 1455.249754,1338.503722 1460.896416,1339.001086"/>
    <poly id="315588846" type="amenity.college" color="237,199,199" fill="1" layer="-1.00" shape="1435.529342,1302.410652 1435.811437,1326.068786 1512.451270,1328.321780 1513.614618,1304.081740 1435.529342,1302.410652"/>
    <poly id="315588846#1" type="building.university" color="255,230,230" fill="1" layer="-1.00" shape="1435.529342,1302.410652 1435.811437,1326.068786 1512.451270,1328.321780 1513.614618,1304.081740 1435.529342,1302.410652"/>
    <poly id="315588848" type="building.university" color="255,230,230" fill="1" layer="-1.00" shape="1545.428105,1308.507941 1544.798844,1328.999175 1634.534570,1334.274347 1635.010291,1325.621227 1644.006820,1325.514053 1641.419833,1376.023409 1657.693581,1378.132582 1663.006833,1272.893692 1646.968864,1272.032864 1644.634861,1312.862026 1545.428105,1308.507941"/>
    <poly id="340871376" type="building.commercial" color="255,230,230" fill="1" layer="-1.00" shape="1071.643691,598.744921 1100.479578,469.109306 1134.288429,470.399829 1135.455833,532.058645 1109.466517,612.753822 1071.643691,598.744921"/>
    <poly id="353138572" type="building.yes" color="255,230,230" fill="1" layer="-1.00" shape="944.583018,557.179966 951.973662,559.162204 958.143408,536.467756 950.752755,534.485515 944.583018,557.179966"/>
    <poly id="353138573" type="building.yes" color="255,230,230" fill="1" layer="-1.00" shape="867.569888,568.020920 900.423672,573.064854 902.525080,559.564728 869.671273,554.520788 867.569888,568.020920"/>
    <poly id="353138585" type="building.yes" color="255,230,230" fill="1" layer="-1.00" shape="1011.021638,580.900527 1033.832961,585.754601 1040.076580,580.697504 1041.985873,573.134460 1042.435604,562.322511 1037.120252,561.389472 1037.529607,559.535508 1038.296498,555.894631 1017.203441,552.160477 1011.021638,580.900527"/>
    <poly id="353182355" type="building.yes" color="255,230,230" fill="1" layer="-1.00" shape="1223.529905,540.607347 1255.807778,541.495595 1256.109526,530.618998 1239.265228,530.155599 1239.249069,530.565467 1236.827652,530.494703 1236.895017,528.201933 1231.525913,528.055613 1231.511339,528.598330 1225.184137,528.419152 1225.142001,530.180151 1223.825999,530.140490 1223.529905,540.607347"/>
    <poly id="353182363" type="building.yes" color="255,230,230" fill="1" layer="-1.00" shape="1291.452359,619.063693 1297.868197,619.618291 1298.535911,612.070092 1301.791249,612.352363 1301.170866,619.457104 1309.809630,620.206640 1311.569961,600.144789 1305.765225,599.649331 1306.932511,586.337582 1310.967458,586.688063 1311.690262,578.463799 1293.675313,576.907087 1292.971978,584.998253 1298.955869,585.513715 1297.557343,601.496647 1293.027304,601.107786 1291.452359,619.063693"/>
    <poly id="353182374" type="building.yes" color="255,230,230" fill="1" layer="-1.00" shape="1681.785422,834.041785 1693.943036,834.240263 1694.094714,824.882386 1681.937094,824.683907 1681.785422,834.041785"/>
    <poly id="353182377" type="building.yes" color="255,230,230" fill="1" layer="-1.00" shape="1667.827206,807.247008 1682.304328,809.565880 1683.784876,800.446842 1669.307879,798.139039 1667.827206,807.247008"/>
    <poly id="353182379" type="building.yes" color="255,230,230" fill="1" layer="-1.00" shape="1755.336423,996.592832 1773.992389,999.880661 1776.193014,987.597464 1757.536905,984.298560 1755.336423,996.592832"/>
    <poly id="353182380" type="building.yes" color="255,230,230" fill="1" layer="-1.00" shape="1652.378268,859.415318 1664.653198,859.745245 1667.694572,829.692089 1656.545114,828.429756 1652.378268,859.415318"/>
    <poly id="353182383" type="building.yes" color="255,230,230" fill="1" layer="-1.00" shape="1679.445719,853.202535 1693.501616,854.618502 1694.481805,845.018242 1680.425769,843.591203 1679.445719,853.202535"/>
    <poly id="353182389" type="building.yes" color="255,230,230" fill="1" layer="-1.00" shape="1659.371938,802.453750 1667.868409,803.636956 1670.469091,785.181722 1661.983134,783.998389 1659.371938,802.453750"/>
    <poly id="353182390" type="building.apartments" color="255,230,230" fill="1" layer="-1.00" shape="1478.632698,1194.539802 1516.084441,1193.440123 1515.341662,1168.204156 1477.889867,1169.303831 1478.632698,1194.539802"/>
    <poly id="353182392" type="building.yes" color="255,230,230" fill="1" layer="-1.00" shape="1609.031287,787.087076 1632.855239,793.944939 1638.183740,775.667583 1614.359768,768.809711 1609.031287,787.087076"/>
    <poly id="353182394" type="building.yes" color="255,230,230" fill="1" layer="-1.00" shape="1684.859393,806.723099 1695.949174,809.159822 1700.204538,790.020558 1689.114746,787.583831 1684.859393,806.723099"/>
    <poly id="353182403" type="building.yes" color="255,230,230" fill="1" layer="-1.00" shape="1622.418457,865.773316 1636.093671,866.152979 1636.257921,860.504161 1642.679692,860.682340 1642.909904,852.618981 1622.802515,852.072333 1622.418457,865.773316"/>
    <poly id="353182411" type="building.yes" color="255,230,230" fill="1" layer="-1.00" shape="1291.840905,644.580705 1299.522533,646.260651 1299.133276,648.036862 1306.466596,649.632387 1306.855986,647.867247 1314.516433,649.536380 1317.242433,637.202548 1294.577415,632.246743 1291.840905,644.580705"/>
    <poly id="353193433" type="building.yes" color="255,230,230" fill="1" layer="-1.00" shape="1467.669676,544.051723 1476.551574,542.240745 1474.116326,530.411348 1465.234422,532.222328 1467.669676,544.051723"/>
    <poly id="353193435" type="building.yes" color="255,230,230" fill="1" layer="-1.00" shape="1461.860898,555.580765 1487.158780,550.972170 1480.565827,515.242968 1455.278550,519.862513 1461.860898,555.580765"/>
    <poly id="353193437" type="building.yes" color="255,230,230" fill="1" layer="-1.00" shape="1430.516134,563.217772 1444.238630,562.245934 1442.659790,540.153395 1434.773162,540.701359 1434.897786,542.327500 1433.047108,542.460281 1432.933006,540.834015 1427.591160,541.207711 1428.260500,550.566888 1429.617006,550.473213 1430.516134,563.217772"/>
    <poly id="353193439" type="building.yes" color="255,230,230" fill="1" layer="-1.00" shape="1950.206082,633.628522 1968.495775,623.789249 1943.697655,580.149427 1943.066104,523.500217 1927.690130,528.798447 1927.672748,585.743258 1940.899120,613.853431 1937.371946,615.489782 1943.439838,628.383231 1946.966878,626.735811 1950.206082,633.628522"/>
    <poly id="353193443" type="building.yes" color="255,230,230" fill="1" layer="-1.00" shape="1739.398448,818.507934 1747.363241,819.232469 1748.743725,804.357050 1745.635751,804.072951 1746.268788,797.134175 1732.983507,795.919363 1732.209769,804.299210 1739.753140,804.984470 1739.175334,811.258253 1743.642428,811.670112 1743.391134,814.430098 1739.798466,814.096409 1739.398448,818.507934"/>
    <poly id="353193446" type="building.yes" color="255,230,230" fill="1" layer="-1.00" shape="1766.838075,919.592217 1776.762639,920.514877 1776.836672,919.661431 1783.452960,920.269160 1783.379058,921.133677 1794.188561,922.134391 1795.039116,913.133586 1789.265680,912.604399 1789.144568,913.923441 1783.423744,913.393629 1783.516978,912.384943 1767.650349,910.912961 1766.838075,919.592217"/>
    <poly id="353193463" type="building.yes" color="255,230,230" fill="1" layer="-1.00" shape="1323.457381,669.448461 1331.244485,671.149306 1331.813646,668.573746 1333.691826,668.983167 1333.122665,671.558727 1350.722758,675.401306 1351.072305,673.824872 1353.636436,674.392200 1353.297280,675.957438 1361.020976,677.636906 1362.898117,669.133147 1354.087548,667.211974 1353.908041,668.044537 1350.784888,667.373152 1350.964263,666.529519 1325.334506,660.944696 1323.457381,669.448461"/>
    <poly id="353193476" type="building.yes" color="255,230,230" fill="1" layer="-1.00" shape="1999.115563,716.277082 2004.396584,716.103572 2004.311460,713.369738 2008.982435,713.225626 2009.162546,718.637815 2018.051890,718.343904 2017.472360,700.579832 2026.361713,700.285925 2025.919542,686.993410 2019.060518,687.218890 2018.896462,682.271545 2011.479869,682.514728 2011.567229,685.436764 2005.434132,685.642546 2005.384927,684.159449 1996.706017,684.450863 1997.046902,694.533631 1993.533276,694.652913 1993.927318,706.550898 1998.787570,706.393462 1999.115563,716.277082"/>
    <poly id="353193485" type="building.yes" color="255,230,230" fill="1" layer="-1.00" shape="1762.797806,894.915932 1772.875214,895.416026 1772.626197,900.135776 1776.311705,900.313354 1776.243337,901.642840 1789.890631,902.332969 1790.156217,897.236565 1793.283769,897.398642 1793.386454,895.415484 1798.209313,895.657035 1799.670573,867.228207 1790.572405,866.771804 1789.956823,878.715034 1793.358095,878.884926 1793.118014,883.471702 1790.169605,883.329637 1789.605829,894.320037 1774.831832,893.576884 1776.308303,864.660690 1765.599001,864.123825 1765.454776,867.037548 1766.792189,867.110207 1766.399738,874.810105 1763.840924,874.685552 1763.446629,882.230460 1765.131416,882.310056 1764.839539,887.849665 1763.165144,887.758873 1762.797806,894.915932"/>
    <poly id="353193492" type="building.yes" color="255,230,230" fill="1" layer="-1.00" shape="1732.859097,880.059030 1747.405965,881.170238 1748.299584,869.600151 1733.763230,868.488815 1732.859097,880.059030"/>
    <poly id="353193500" type="building.yes" color="255,230,230" fill="1" layer="-1.00" shape="1675.139387,916.664734 1682.068217,917.888753 1683.607558,909.289410 1676.678857,908.076461 1675.139387,916.664734"/>
    <poly id="353193501" type="building.yes" color="255,230,230" fill="1" layer="-1.00" shape="1607.357516,590.009402 1634.142385,596.267343 1637.378920,582.598831 1610.593902,576.329812 1607.357516,590.009402"/>
    <poly id="353193503" type="building.yes" color="255,230,230" fill="1" layer="-1.00" shape="1363.834093,622.297258 1374.569200,622.335346 1374.607680,611.439751 1363.872566,611.401663 1363.834093,622.297258"/>
    <poly id="353193505" type="building.yes" color="255,230,230" fill="1" layer="-1.00" shape="1736.245867,845.417864 1752.246847,846.677853 1753.583750,829.909595 1737.582888,828.660675 1736.245867,845.417864"/>
    <poly id="353193508" type="building.yes" color="255,230,230" fill="1" layer="-1.00" shape="1684.410066,540.052775 1698.427222,545.267022 1710.465649,513.335227 1696.448474,508.120969 1684.410066,540.052775"/>
    <poly id="353193509" type="building.yes" color="255,230,230" fill="1" layer="-1.00" shape="1711.882059,900.161358 1725.889104,901.013241 1726.532562,890.531211 1712.536032,889.679202 1711.882059,900.161358"/>
    <poly id="353193510" type="building.yes" color="255,230,230" fill="1" layer="-1.00" shape="1706.594138,921.848468 1722.508899,922.943367 1723.236533,912.460334 1707.321763,911.365434 1706.594138,921.848468"/>
    <poly id="353193513" type="building.yes" color="255,230,230" fill="1" layer="-1.00" shape="1402.382046,611.529370 1411.195370,612.797270 1413.266458,598.489327 1404.453260,597.232497 1402.382046,611.529370"/>
    <poly id="353193516" type="building.yes" color="255,230,230" fill="1" layer="-1.00" shape="1403.154131,656.872268 1406.845769,657.559029 1405.598707,664.184053 1420.671202,666.993892 1422.551733,657.006414 1403.787591,653.509812 1403.154131,656.872268"/>
    <poly id="353193518" type="building.yes" color="255,230,230" fill="1" layer="-1.00" shape="1651.864732,909.080595 1654.729487,909.267923 1654.452996,913.445464 1668.534355,914.351779 1669.200933,904.046624 1652.265465,902.963926 1651.864732,909.080595"/>
    <poly id="353193521" type="building.yes" color="255,230,230" fill="1" layer="-1.00" shape="1761.466112,943.948722 1767.078936,944.247294 1767.034626,944.945374 1769.667351,945.091192 1769.701007,944.382166 1773.744797,944.599766 1774.357349,933.287688 1762.068134,932.636768 1761.466112,943.948722"/>
    <poly id="353193522" type="building.yes" color="255,230,230" fill="1" layer="-1.00" shape="1373.340236,680.789559 1378.976090,682.128543 1378.514620,684.027407 1384.825901,685.524424 1385.276716,683.614615 1388.685692,684.426538 1390.640726,676.276167 1375.295264,672.639186 1373.340236,680.789559"/>
    <poly id="353193523" type="building.yes" color="255,230,230" fill="1" layer="-1.00" shape="1781.650621,958.058121 1796.867319,959.748219 1798.486427,945.467868 1790.762128,944.607587 1790.247939,949.153337 1785.969494,948.672792 1786.502751,943.960731 1783.288655,943.600385 1781.650621,958.058121"/>
    <poly id="353203898" type="building.yes" color="255,230,230" fill="1" layer="-1.00" shape="2083.336915,1001.150283 2096.754961,999.385316 2096.523722,997.638649 2103.427082,996.726179 2101.438669,981.724772 2089.418119,983.307040 2088.655476,977.580680 2080.848496,978.614618 2081.796607,985.778166 2081.302711,985.839398 2083.336915,1001.150283"/>
    <poly id="353203900" type="building.yes" color="255,230,230" fill="1" layer="-1.00" shape="2078.979677,1038.305186 2089.058811,1037.188874 2089.953786,1045.194544 2100.684514,1044.004060 2099.777048,1035.832454 2108.836826,1034.838992 2108.070238,1027.894732 2095.647236,1029.260337 2094.505107,1019.054227 2088.419740,1019.724461 2089.290380,1027.453614 2077.907911,1028.707213 2078.979677,1038.305186"/>
    <poly id="353203904" type="building.yes" color="255,230,230" fill="1" layer="-1.00" shape="1496.345329,710.735414 1508.637832,706.348246 1513.741794,720.459950 1523.969913,716.817089 1518.593791,701.944638 1530.488159,697.706169 1527.484325,689.382386 1513.242514,694.457105 1514.896830,699.043462 1509.227309,701.059742 1507.507877,696.308076 1493.004197,701.485582 1496.345329,710.735414"/>
    <poly id="353203906" type="building.yes" color="255,230,230" fill="1" layer="-1.00" shape="2118.302158,940.457386 2127.532314,938.742217 2124.173231,920.867243 2131.681266,919.471494 2134.748471,935.810896 2146.215308,933.681629 2143.249393,917.894636 2149.066865,916.817934 2151.853103,931.654850 2162.784351,929.620536 2158.257565,905.581123 2113.314289,913.932201 2118.302158,940.457386"/>
    <poly id="353203908" type="building.yes" color="255,230,230" fill="1" layer="-1.00" shape="2126.461605,1042.579395 2134.385751,1041.665875 2135.089455,1047.747247 2150.843306,1045.943485 2149.975059,1038.413604 2158.456237,1037.438114 2156.732245,1022.544287 2148.061790,1023.533098 2148.355107,1026.076229 2130.457170,1028.115844 2130.163981,1025.583784 2124.572775,1026.214917 2126.461605,1042.579395"/>
    <poly id="353203912" type="building.yes" color="255,230,230" fill="1" layer="-1.00" shape="1955.556893,726.051431 1969.324203,721.779910 1963.570527,703.446243 1961.620302,704.056263 1960.526574,700.581509 1961.742851,700.201662 1955.015527,678.757198 1953.788726,679.137172 1952.596474,675.342494 1953.823275,674.962521 1949.524509,661.272974 1941.586929,663.725759 1940.405459,659.953098 1935.309503,661.530601 1955.556893,726.051431"/>
    <poly id="353203914" type="building.yes" color="255,230,230" fill="1" layer="-1.00" shape="2119.264110,996.604387 2126.495639,995.854110 2126.139575,992.459162 2131.699883,991.883759 2132.234042,996.981716 2141.305020,996.043500 2140.996575,993.113021 2149.594572,992.224719 2148.074973,977.704919 2138.688576,978.669023 2138.153760,973.515713 2124.668087,974.904994 2125.427567,982.137217 2117.828011,982.914014 2119.264110,996.604387"/>
    <poly id="353203918" type="building.yes" color="255,230,230" fill="1" layer="-1.00" shape="2163.798826,1022.083861 2175.667960,1020.160199 2173.932675,1009.628970 2174.153251,1009.593132 2173.177161,1003.614646 2175.204434,1003.291608 2174.263595,997.622726 2179.662382,996.739234 2179.004071,992.705687 2170.895235,994.019980 2170.021475,988.682469 2157.427589,990.725466 2158.176661,995.311546 2161.233291,994.821264 2161.948164,999.186306 2160.088985,999.485204 2163.798826,1022.083861"/>
    <poly id="353203920" type="building.yes" color="255,230,230" fill="1" layer="-1.00" shape="2088.529146,966.067043 2097.837551,964.738457 2097.275239,960.814492 2096.949570,960.862652 2095.676050,951.997846 2095.007720,947.122928 2094.051624,947.256087 2093.501282,943.453775 2090.200001,944.611310 2086.609214,944.432546 2086.918717,946.565811 2086.487954,946.626292 2087.841058,955.988403 2087.032014,956.097670 2087.548422,959.701085 2088.529146,966.067043"/>
    <poly id="353203929" type="building.yes" color="255,230,230" fill="1" layer="-1.00" shape="1911.986847,787.068433 1915.578065,787.280379 1915.079279,795.778733 1929.686292,796.634715 1930.090667,789.931190 1933.460647,790.123626 1934.258748,776.705631 1930.783409,776.503375 1931.045100,771.960637 1932.245594,772.023865 1932.587637,766.273296 1925.521074,765.859091 1925.616676,764.163899 1920.582678,763.869461 1920.723124,761.520472 1910.644603,760.931725 1910.041406,771.269316 1912.905912,771.434545 1911.986847,787.068433"/>
    <poly id="353203934" type="building.yes" color="255,230,230" fill="1" layer="-1.00" shape="1485.797311,593.040929 1493.871283,590.553103 1489.668702,577.017490 1481.594593,579.494247 1485.797311,593.040929"/>
    <poly id="353203939" type="building.yes" color="255,230,230" fill="1" layer="-1.00" shape="1591.042458,615.415298 1600.869598,616.095453 1601.885795,601.567594 1592.058779,600.898509 1591.042458,615.415298"/>
    <poly id="353203946" type="building.yes" color="255,230,230" fill="1" layer="-1.00" shape="1455.950756,649.555264 1463.771856,667.354864 1471.833653,663.848519 1464.012561,646.048916 1455.950756,649.555264"/>
    <poly id="353203947" type="building.yes" color="255,230,230" fill="1" layer="-1.00" shape="1559.037443,781.404645 1567.618012,783.461514 1572.362541,763.873488 1563.781964,761.816616 1559.037443,781.404645"/>
    <poly id="353203948" type="building.yes" color="255,230,230" fill="1" layer="-1.00" shape="1713.380835,633.567511 1720.499132,621.524721 1714.649113,618.106596 1707.520295,630.149514 1713.380835,633.567511"/>
    <poly id="353203951" type="building.yes" color="255,230,230" fill="1" layer="-1.00" shape="1570.984931,585.504401 1581.372138,585.491394 1581.365303,572.547983 1570.978088,572.560989 1570.984931,585.504401"/>
    <poly id="353203959" type="building.yes" color="255,230,230" fill="1" layer="-1.00" shape="1699.852543,618.138807 1705.620158,607.562559 1697.845517,603.370148 1692.078036,613.957469 1699.852543,618.138807"/>
    <poly id="353203963" type="building.yes" color="255,230,230" fill="1" layer="-1.00" shape="1469.892216,602.497975 1479.111835,599.885765 1474.961034,585.397321 1465.741276,587.998461 1469.892216,602.497975"/>
    <poly id="353203973" type="building.yes" color="255,230,230" fill="1" layer="-1.00" shape="1642.396906,606.289103 1652.582392,608.780871 1656.930029,591.201693 1646.744536,588.709922 1642.396906,606.289103"/>
    <poly id="353203976" type="building.yes" color="255,230,230" fill="1" layer="-1.00" shape="1979.629354,801.610114 1993.950625,797.907775 1977.962993,736.702234 1961.470348,741.006158 1979.629354,801.610114"/>
    <poly id="353203978" type="building.yes" color="255,230,230" fill="1" layer="-1.00" shape="1502.077852,592.127228 1514.731963,589.817354 1512.707290,578.879918 1500.063693,581.189668 1502.077852,592.127228"/>
    <poly id="353203988" type="building.yes" color="255,230,230" fill="1" layer="-1.00" shape="1474.228365,621.058811 1483.442862,618.900627 1480.006553,604.315089 1470.781527,606.473400 1474.228365,621.058811"/>
    <poly id="353203996" type="building.yes" color="255,230,230" fill="1" layer="-1.00" shape="1454.694195,697.767908 1462.873177,694.381955 1454.954709,675.476288 1446.775718,678.862244 1454.694195,697.767908"/>
    <poly id="353204009" type="building.yes" color="255,230,230" fill="1" layer="-1.00" shape="1495.095546,619.105007 1506.365760,616.357652 1502.528127,600.769316 1491.257771,603.505602 1495.095546,619.105007"/>
    <poly id="353204016" type="building.yes" color="255,230,230" fill="1" layer="-1.00" shape="1541.164983,777.653706 1555.490017,781.336186 1557.995917,771.717735 1543.681398,768.035127 1541.164983,777.653706"/>
    <poly id="353204033" type="building.yes" color="255,230,230" fill="1" layer="-1.00" shape="1528.320436,726.874246 1541.505876,729.418781 1543.341630,720.085120 1537.751589,719.055566 1530.145661,717.540709 1528.320436,726.874246"/>
    <poly id="353204036" type="building.yes" color="255,230,230" fill="1" layer="-1.00" shape="1753.183624,716.722556 1762.148783,712.186940 1758.097543,704.274199 1760.650037,702.981580 1756.555518,694.969704 1745.037857,700.797943 1753.183624,716.722556"/>
    <poly id="353204037" type="building.yes" color="255,230,230" fill="1" layer="-1.00" shape="1540.357089,776.976850 1542.893158,769.007807 1529.125087,763.491772 1518.135546,751.808593 1513.856964,756.620659 1524.979930,769.785932 1540.357089,776.976850"/>
    <poly id="353204039" type="building.yes" color="255,230,230" fill="1" layer="-1.00" shape="1737.350743,685.388270 1752.527686,674.877191 1743.663280,662.238523 1738.913963,665.528157 1740.369946,667.603485 1729.952838,674.824810 1737.350743,685.388270"/>
    <poly id="353204041" type="building.yes" color="255,230,230" fill="1" layer="-1.00" shape="2244.405090,1322.734070 2248.665672,1320.834390 2244.407205,1311.396068 2247.045261,1310.224288 2245.197167,1306.138441 2238.309048,1309.209777 2244.405090,1322.734070"/>
    <poly id="353204042" type="building.yes" color="255,230,230" fill="1" layer="-1.00" shape="2251.057520,1309.567651 2295.244379,1289.887817 2298.973296,1298.158780 2304.039893,1295.895231 2298.192738,1282.943723 2248.949791,1304.886987 2251.057520,1309.567651"/>
    <poly id="353204045" type="building.yes" color="255,230,230" fill="1" layer="-1.00" shape="2255.083537,1345.504610 2313.296458,1318.571963 2307.497979,1306.173487 2302.976569,1308.264477 2306.712320,1316.225338 2257.175888,1339.146432 2253.634383,1331.592945 2249.468767,1333.513639 2255.083537,1345.504610"/>
    <poly id="353204046" type="building.yes" color="255,230,230" fill="1" layer="-1.00" shape="1662.461323,603.204608 1671.894578,606.159307 1674.653666,597.467939 1672.879003,596.913311 1675.242208,589.444607 1666.643532,586.756775 1665.537951,590.246632 1666.478160,590.545461 1662.461323,603.204608"/>
    <poly id="353204047" type="building.yes" color="255,230,230" fill="1" layer="-1.00" shape="2224.850061,1285.365053 2229.277954,1283.374804 2225.333954,1274.718878 2274.647597,1252.520057 2278.591576,1261.175991 2284.935059,1258.321515 2278.386841,1243.938947 2218.301800,1270.982502 2224.850061,1285.365053"/>
    <poly id="353204050" type="building.yes" color="255,230,230" fill="1" layer="-1.00" shape="1708.744556,764.806968 1715.979341,764.322233 1715.787894,761.501084 1720.141472,761.216736 1720.322396,764.038011 1723.655943,763.821170 1722.965946,753.598606 1708.065205,754.595350 1708.744556,764.806968"/>
    <poly id="353785590" type="building.apartments" color="255,230,230" fill="1" layer="-1.00" shape="1515.934758,1102.294825 1525.505881,1097.408601 1519.570166,1085.908801 1528.942560,1081.124599 1524.482716,1072.486003 1514.806884,1077.417763 1507.621397,1063.485884 1498.154823,1068.315507 1505.641673,1082.808478 1496.007807,1087.728676 1499.875208,1095.222810 1509.686895,1090.211916 1515.934758,1102.294825"/>