<?xml version="1.0" encoding="UTF-8"?>

<!-- generated on 2021-12-05 22:05:07 by Eclipse SUMO duarouter Version 1.9.2
<configuration xmlns:xsi="http://www.w3.org/2001/XMLSchema-instance" xsi:noNamespaceSchemaLocation="http://sumo.dlr.de/xsd/duarouterConfiguration.xsd">

    <input>
        <net-file value="C:\Users\saurabh\Sumo\2021-12-05-22-04-55\osm.net.xml"/>
        <route-files value="C:\Users\saurabh\Sumo\2021-12-05-22-04-55\osm.passenger.trips.xml"/>
    </input>

    <output>
        <output-file value="C:\Users\saurabh\Sumo\2021-12-05-22-04-55\osm.passenger.trips.xml.tmp"/>
        <write-trips value="true"/>
    </output>

    <time>
        <begin value="0"/>
        <end value="3600"/>
    </time>

    <report>
        <no-warnings value="true"/>
        <ignore-errors value="true"/>
        <no-step-log value="true"/>
    </report>

</configuration>
-->

<routes xmlns:xsi="http://www.w3.org/2001/XMLSchema-instance" xsi:noNamespaceSchemaLocation="http://sumo.dlr.de/xsd/routes_file.xsd">
    <vType id="veh_passenger" vClass="passenger"/>
    <trip id="veh1" type="veh_passenger" depart="5.60" departLane="best" from="273833832#4" to="22843199"/>
    <trip id="veh2" type="veh_passenger" depart="11.21" departLane="best" from="-52664437#0" to="177566541"/>
    <trip id="veh3" type="veh_passenger" depart="16.81" departLane="best" from="-185467797#2" to="-52656692"/>
    <trip id="veh4" type="veh_passenger" depart="22.41" departLane="best" departSpeed="max" from="22856174#0" to="177566558#1"/>
    <trip id="veh5" type="veh_passenger" depart="28.02" departLane="best" from="-52664437#2" to="177566559#7"/>
    <trip id="veh6" type="veh_passenger" depart="33.62" departLane="best" from="366913701#7" to="-104902792#2"/>
    <trip id="veh7" type="veh_passenger" depart="39.22" departLane="best" from="366913701#6" to="273833832#1"/>
    <trip id="veh8" type="veh_passenger" depart="44.83" departLane="best" from="177566523#10" to="-52511313#4"/>
    <trip id="veh9" type="veh_passenger" depart="50.43" departLane="best" from="672840525" to="177566523#10"/>
    <trip id="veh10" type="veh_passenger" depart="56.04" departLane="best" from="-366913700#4" to="-366913701#10"/>
    <trip id="veh11" type="veh_passenger" depart="61.64" departLane="best" from="52511313#0" to="177566559#8"/>
    <trip id="veh12" type="veh_passenger" depart="67.24" departLane="best" from="366913701#6" to="273833832#4"/>
    <trip id="veh14" type="veh_passenger" depart="78.45" departLane="best" from="439108071" to="177566572#3"/>
    <trip id="veh16" type="veh_passenger" depart="89.66" departLane="best" from="-547023629#1" to="-787061030"/>
    <trip id="veh17" type="veh_passenger" depart="95.26" departLane="best" from="-366913700#0" to="-568771388#1"/>
    <trip id="veh18" type="veh_passenger" depart="100.86" departLane="best" from="22843276#0" to="177566523#11"/>
    <trip id="veh19" type="veh_passenger" depart="106.47" departLane="best" from="177566523#2-AddedOnRampEdge" to="-52663744#3"/>
    <trip id="veh20" type="veh_passenger" depart="112.07" departLane="best" from="-686607369" to="568771388#0"/>
    <trip id="veh21" type="veh_passenger" depart="117.67" departLane="best" departSpeed="max" from="22856174#0" to="177566566"/>
    <trip id="veh22" type="veh_passenger" depart="123.28" departLane="best" from="-52514845#3" to="273833832#4"/>
    <trip id="veh23" type="veh_passenger" depart="128.88" departLane="best" from="-52514845#0" to="177566523#11"/>
    <trip id="veh24" type="veh_passenger" depart="134.49" departLane="best" from="723552318#2" to="185467797#4"/>
    <trip id="veh25" type="veh_passenger" depart="140.09" departLane="best" departSpeed="max" from="177566572#0" to="22856174#1"/>
    <trip id="veh26" type="veh_passenger" depart="145.69" departLane="best" from="52511312" to="366913700#4"/>
    <trip id="veh27" type="veh_passenger" depart="151.30" departLane="best" from="-547023629#1" to="-185467797#4"/>
    <trip id="veh28" type="veh_passenger" depart="156.90" departLane="best" from="-52663744#3" to="622415793#0"/>
    <trip id="veh30" type="veh_passenger" depart="168.11" departLane="best" departSpeed="max" from="22856174#0" to="177566523#2"/>
    <trip id="veh31" type="veh_passenger" depart="173.71" departLane="best" from="-686607369" to="-672838526#0"/>
    <trip id="veh32" type="veh_passenger" depart="179.31" departLane="best" departSpeed="max" from="177566572#0" to="-686607369"/>
    <trip id="veh33" type="veh_passenger" depart="184.92" departLane="best" from="185467797#0" to="52514847#0"/>
    <trip id="veh34" type="veh_passenger" depart="190.52" departLane="best" from="177566523#6" to="-52664437#2"/>
    <trip id="veh35" type="veh_passenger" depart="196.12" departLane="best" from="992408934" to="177566541"/>
    <trip id="veh36" type="veh_passenger" depart="201.73" departLane="best" from="-366913700#3" to="-215261251#0"/>
    <trip id="veh37" type="veh_passenger" depart="207.33" departLane="best" from="-366913701#5" to="185467797#0"/>
    <trip id="veh38" type="veh_passenger" depart="212.93" departLane="best" from="366913701#0" to="177566523#5"/>
    <trip id="veh39" type="veh_passenger" depart="218.54" departLane="best" from="-22843127#2" to="177566523#11"/>
    <trip id="veh40" type="veh_passenger" depart="224.14" departLane="best" from="935240391" to="177566556#5"/>
    <trip id="veh41" type="veh_passenger" depart="229.75" departLane="best" from="-104902792#3" to="273833832#3"/>
    <trip id="veh42" type="veh_passenger" depart="235.35" departLane="best" departSpeed="max" from="273833832#0" to="177566556#5"/>
    <trip id="veh43" type="veh_passenger" depart="240.95" departLane="best" from="-686607369" to="195072878#0"/>
    <trip id="veh44" type="veh_passenger" depart="246.56" departLane="best" from="-366913701#6" to="177566523#6"/>
    <trip id="veh45" type="veh_passenger" depart="252.16" departLane="best" departSpeed="max" from="177566537" to="672838526#2"/>
    <trip id="veh46" type="veh_passenger" depart="257.76" departLane="best" from="52514846#1" to="-692042225"/>
    <trip id="veh47" type="veh_passenger" depart="263.37" departLane="best" from="177566558#1" to="-52514846#2"/>
    <trip id="veh48" type="veh_passenger" depart="268.97" departLane="best" from="-935240391" to="185467797#4"/>
    <trip id="veh50" type="veh_passenger" depart="280.18" departLane="best" from="273833832#6" to="177566556#5"/>
    <trip id="veh51" type="veh_passenger" depart="285.78" departLane="best" from="366913700#1" to="177566556#5"/>
    <trip id="veh53" type="veh_passenger" depart="296.99" departLane="best" from="-185467797#0" to="547023629#2"/>
    <trip id="veh54" type="veh_passenger" depart="302.59" departLane="best" from="52514846#2" to="483187902#1"/>
    <trip id="veh55" type="veh_passenger" depart="308.20" departLane="best" from="104902792#1" to="-22843125"/>
    <trip id="veh56" type="veh_passenger" depart="313.80" departLane="best" from="-366913700#2" to="177566541"/>
    <trip id="veh57" type="veh_passenger" depart="319.40" departLane="best" from="-22843199" to="273833832#7"/>
    <trip id="veh59" type="veh_passenger" depart="330.61" departLane="best" departSpeed="max" from="177566537" to="177566558#1"/>
    <trip id="veh60" type="veh_passenger" depart="336.21" departLane="best" from="-686607369" to="52514845#3"/>
    <trip id="veh61" type="veh_passenger" depart="341.82" departLane="best" from="177566559#5" to="273833832#4"/>
    <trip id="veh62" type="veh_passenger" depart="347.42" departLane="best" from="-52514847#1" to="104902793"/>
    <trip id="veh64" type="veh_passenger" depart="358.63" departLane="best" from="177566523#9" to="177566556#0"/>
    <trip id="veh66" type="veh_passenger" depart="369.83" departLane="best" from="177566523#1" to="177566559#7"/>
    <trip id="veh67" type="veh_passenger" depart="375.44" departLane="best" from="-22843199" to="185467797#1"/>
    <trip id="veh68" type="veh_passenger" depart="381.04" departLane="best" from="-547023629#1" to="52663744#0"/>
    <trip id="veh69" type="veh_passenger" depart="386.64" departLane="best" from="52514845#0" to="-22843199"/>
    <trip id="veh70" type="veh_passenger" depart="392.25" departLane="best" from="-568771388#1" to="22843127#1"/>
    <trip id="veh71" type="veh_passenger" depart="397.85" departLane="best" from="-52663746" to="-439108071"/>
    <trip id="veh72" type="veh_passenger" depart="403.46" departLane="best" from="568771388#0" to="177566559#0"/>
    <trip id="veh73" type="veh_passenger" depart="409.06" departLane="best" departSpeed="max" from="177566537" to="366913701#10"/>
    <trip id="veh74" type="veh_passenger" depart="414.66" departLane="best" from="366913701#6" to="-52514846#6"/>
    <trip id="veh75" type="veh_passenger" depart="420.27" departLane="best" from="177566523#8" to="177566523#9"/>
    <trip id="veh76" type="veh_passenger" depart="425.87" departLane="best" from="273833832#3" to="22843134"/>
    <trip id="veh77" type="veh_passenger" depart="431.47" departLane="best" from="723323006#3" to="-366913701#10"/>
    <trip id="veh78" type="veh_passenger" depart="437.08" departLane="best" from="177566523#6" to="177566523#10"/>
    <trip id="veh79" type="veh_passenger" depart="442.68" departLane="best" from="52514845#1" to="-672838526#1"/>
    <trip id="veh80" type="veh_passenger" depart="448.28" departLane="best" from="177566523#8" to="-723323006#2"/>
    <trip id="veh81" type="veh_passenger" depart="453.89" departLane="best" from="-672838526#0" to="547023629#0"/>
    <trip id="veh82" type="veh_passenger" depart="459.49" departLane="best" departSpeed="max" from="177566537" to="52514845#0"/>
    <trip id="veh83" type="veh_passenger" depart="465.09" departLane="best" departSpeed="max" from="177566572#0" to="-215261251#1"/>
    <trip id="veh84" type="veh_passenger" depart="470.70" departLane="best" from="992408934" to="483187902#1"/>
    <trip id="veh85" type="veh_passenger" depart="476.30" departLane="best" from="52511313#0" to="-52514845#2"/>
    <trip id="veh86" type="veh_passenger" depart="481.91" departLane="best" departSpeed="max" from="177566537" to="-52664437#0"/>
    <trip id="veh87" type="veh_passenger" depart="487.51" departLane="best" from="177566523#6" to="-22843125"/>
    <trip id="veh88" type="veh_passenger" depart="493.11" departLane="best" from="-686607369" to="366913701#10"/>
    <trip id="veh89" type="veh_passenger" depart="498.72" departLane="best" departSpeed="max" from="177566537" to="177566523#5"/>
    <trip id="veh90" type="veh_passenger" depart="504.32" departLane="best" from="672840525" to="935240391"/>
    <trip id="veh91" type="veh_passenger" depart="509.92" departLane="best" departSpeed="max" from="177566572#0" to="273833832#3"/>
    <trip id="veh92" type="veh_passenger" depart="515.53" departLane="best" from="-52511313#2" to="-992408934"/>
    <trip id="veh93" type="veh_passenger" depart="521.13" departLane="best" from="699397460" to="177566559#4"/>
    <trip id="veh94" type="veh_passenger" depart="526.73" departLane="best" from="177566559#6" to="273833832#6"/>
    <trip id="veh95" type="veh_passenger" depart="532.34" departLane="best" from="-22843125" to="177566559#5"/>
    <trip id="veh96" type="veh_passenger" depart="537.94" departLane="best" from="-52511313#4" to="686142690"/>
    <trip id="veh97" type="veh_passenger" depart="543.54" departLane="best" from="185467797#4" to="22843199"/>
    <trip id="veh99" type="veh_passenger" depart="554.75" departLane="best" from="52514846#6" to="-672838526#0"/>
    <trip id="veh100" type="veh_passenger" depart="560.35" departLane="best" from="185467797#4" to="177566572#3"/>
    <trip id="veh101" type="veh_passenger" depart="565.96" departLane="best" from="177566523#7" to="177566559#5"/>
    <trip id="veh102" type="veh_passenger" depart="571.56" departLane="best" from="177566558#8" to="556314750#0"/>
    <trip id="veh103" type="veh_passenger" depart="577.17" departLane="best" from="-52656692" to="273833832#3"/>
    <trip id="veh104" type="veh_passenger" depart="582.77" departLane="best" from="-568771388#1" to="177566523#2"/>
    <trip id="veh105" type="veh_passenger" depart="588.37" departLane="best" departSpeed="max" from="273833832#0" to="104902792#0"/>
    <trip id="veh106" type="veh_passenger" depart="593.98" departLane="best" from="104902793" to="273833832#6"/>
    <trip id="veh107" type="veh_passenger" depart="599.58" departLane="best" from="992408934" to="935240391"/>
    <trip id="veh108" type="veh_passenger" depart="605.18" departLane="best" from="-686607369" to="556314750#0"/>
    <trip id="veh109" type="veh_passenger" depart="610.79" departLane="best" from="177566523#2-AddedOnRampEdge" to="-52511313#4"/>
    <trip id="veh110" type="veh_passenger" depart="616.39" departLane="best" from="439272706#0" to="273833832#1"/>
    <trip id="veh111" type="veh_passenger" depart="621.99" departLane="best" from="215261251#0" to="723552318#0"/>
    <trip id="veh112" type="veh_passenger" depart="627.60" departLane="best" departSpeed="max" from="22856174#0" to="-104902792#2"/>
    <trip id="veh114" type="veh_passenger" depart="638.80" departLane="best" departSpeed="max" from="273833832#0" to="622415769#0"/>
    <trip id="veh116" type="veh_passenger" depart="650.01" departLane="best" from="-366913701#5" to="177566558#3"/>
    <trip id="veh117" type="veh_passenger" depart="655.62" departLane="best" from="-699397460" to="177566559#8"/>
    <trip id="veh118" type="veh_passenger" depart="661.22" departLane="best" from="273833832#2" to="-52663744#1"/>
    <trip id="veh119" type="veh_passenger" depart="666.82" departLane="best" from="22843199" to="-692042225"/>
    <trip id="veh120" type="veh_passenger" depart="672.43" departLane="best" from="177566556#0" to="52663744#0"/>
    <trip id="veh121" type="veh_passenger" depart="678.03" departLane="best" from="52511313#0" to="-366913700#4"/>
    <trip id="veh122" type="veh_passenger" depart="683.63" departLane="best" from="177566523#8" to="-723323006#2"/>
    <trip id="veh123" type="veh_passenger" depart="689.24" departLane="best" from="22843276#0" to="-686607369"/>
    <trip id="veh124" type="veh_passenger" depart="694.84" departLane="best" from="273833832#4" to="177566558#3"/>
    <trip id="veh125" type="veh_passenger" depart="700.44" departLane="best" from="177566523#8" to="-104902792#3"/>
    <trip id="veh126" type="veh_passenger" depart="706.05" departLane="best" from="52663744#0" to="177566558#1"/>
    <trip id="veh127" type="veh_passenger" depart="711.65" departLane="best" from="439272706#0" to="177566559#5"/>
    <trip id="veh128" type="veh_passenger" depart="717.25" departLane="best" from="-52511313#0" to="-439108069#1"/>
    <trip id="veh129" type="veh_passenger" depart="722.86" departLane="best" from="366913701#10" to="52514845#0"/>
    <trip id="veh130" type="veh_passenger" depart="728.46" departLane="best" from="52514847#1" to="-52663744#3"/>
    <trip id="veh131" type="veh_passenger" depart="734.06" departLane="best" from="-672838526#0" to="-366913701#3"/>
    <trip id="veh132" type="veh_passenger" depart="739.67" departLane="best" from="177566523#6" to="177566572#3"/>
    <trip id="veh133" type="veh_passenger" depart="745.27" departLane="best" from="52514845#1" to="723323006#0"/>
    <trip id="veh134" type="veh_passenger" depart="750.88" departLane="best" from="366913701#7" to="52514846#2"/>
    <trip id="veh135" type="veh_passenger" depart="756.48" departLane="best" from="-185467797#1" to="273833832#5"/>
    <trip id="veh136" type="veh_passenger" depart="762.08" departLane="best" from="177566523#1" to="547023629#2"/>
    <trip id="veh137" type="veh_passenger" depart="767.69" departLane="best" from="366913701#7" to="-699397460"/>
    <trip id="veh138" type="veh_passenger" depart="773.29" departLane="best" from="366913700#4" to="-366913701#5"/>
    <trip id="veh139" type="veh_passenger" depart="778.89" departLane="best" from="52514846#0" to="52511313#3"/>
    <trip id="veh140" type="veh_passenger" depart="784.50" departLane="best" from="-52664437#2" to="439108071"/>
    <trip id="veh141" type="veh_passenger" depart="790.10" departLane="best" departSpeed="max" from="177566537" to="104902792#2"/>
    <trip id="veh142" type="veh_passenger" depart="795.70" departLane="best" from="366913701#1" to="-547023629#2"/>
    <trip id="veh143" type="veh_passenger" depart="801.31" departLane="best" from="177566523#0" to="52514845#1"/>
    <trip id="veh144" type="veh_passenger" depart="806.91" departLane="best" from="22843276#1" to="177566523#2-AddedOnRampEdge"/>
    <trip id="veh145" type="veh_passenger" depart="812.51" departLane="best" from="723323006#3" to="177566556#5"/>
    <trip id="veh147" type="veh_passenger" depart="823.72" departLane="best" from="699397460" to="-52514846#2"/>
    <trip id="veh148" type="veh_passenger" depart="829.33" departLane="best" from="-366913701#5" to="177566523#6"/>
    <trip id="veh151" type="veh_passenger" depart="846.14" departLane="best" from="177566523#4" to="177566559#3"/>
    <trip id="veh152" type="veh_passenger" depart="851.74" departLane="best" from="-672838526#2" to="273833832#2"/>
    <trip id="veh153" type="veh_passenger" depart="857.34" departLane="best" from="-104902792#0" to="547023629#0"/>
    <trip id="veh154" type="veh_passenger" depart="862.95" departLane="best" from="273833832#4" to="22843127#1"/>
    <trip id="veh155" type="veh_passenger" depart="868.55" departLane="best" departSpeed="max" from="273833832#0" to="177566523#1"/>
    <trip id="veh156" type="veh_passenger" depart="874.15" departLane="best" from="104902792#3" to="52511312"/>
    <trip id="veh157" type="veh_passenger" depart="879.76" departLane="best" from="273833832#2" to="104902792#1"/>
    <trip id="veh158" type="veh_passenger" depart="885.36" departLane="best" from="104902792#2" to="177566523#2-AddedOnRampEdge"/>
    <trip id="veh159" type="veh_passenger" depart="890.96" departLane="best" from="-439108069#0" to="177566523#4"/>
    <trip id="veh160" type="veh_passenger" depart="896.57" departLane="best" from="622415793#0" to="22843199"/>
    <trip id="veh161" type="veh_passenger" depart="902.17" departLane="best" from="52663744#0" to="177566572#2"/>
    <trip id="veh162" type="veh_passenger" depart="907.77" departLane="best" from="-104902792#0" to="-723552318#2"/>
    <trip id="veh163" type="veh_passenger" depart="913.38" departLane="best" from="177566523#8" to="177566559#4"/>
    <trip id="veh164" type="veh_passenger" depart="918.98" departLane="best" departSpeed="max" from="22856174#0" to="177566523#9"/>
    <trip id="veh165" type="veh_passenger" depart="924.59" departLane="best" departSpeed="max" from="177566537" to="-52664437#0"/>
    <trip id="veh166" type="veh_passenger" depart="930.19" departLane="best" departSpeed="max" from="177566537" to="52656692"/>
    <trip id="veh167" type="veh_passenger" depart="935.79" departLane="best" from="366913701#10" to="-52514845#3"/>
    <trip id="veh168" type="veh_passenger" depart="941.40" departLane="best" from="-366913700#1" to="177566541"/>
    <trip id="veh169" type="veh_passenger" depart="947.00" departLane="best" from="22843199" to="177566523#10"/>
    <trip id="veh170" type="veh_passenger" depart="952.60" departLane="best" departSpeed="max" from="273833832#0" to="-547023629#1"/>
    <trip id="veh171" type="veh_passenger" depart="958.21" departLane="best" from="-622415793#1" to="177566541"/>
    <trip id="veh172" type="veh_passenger" depart="963.81" departLane="best" from="52511313#1" to="-22843276#0"/>
    <trip id="veh174" type="veh_passenger" depart="975.02" departLane="best" from="177566556#3" to="-622415793#2"/>
    <trip id="veh175" type="veh_passenger" depart="980.62" departLane="best" departSpeed="max" from="22856174#0" to="-104902792#1"/>
    <trip id="veh176" type="veh_passenger" depart="986.22" departLane="best" from="273833832#5" to="366913700#2"/>
    <trip id="veh177" type="veh_passenger" depart="991.83" departLane="best" from="-366913701#3" to="177566523#5"/>
    <trip id="veh178" type="veh_passenger" depart="997.43" departLane="best" from="-52514846#0" to="672840525"/>
    <trip id="veh179" type="veh_passenger" depart="1003.04" departLane="best" from="177566558#6" to="-215261251#1"/>
    <trip id="veh180" type="veh_passenger" depart="1008.64" departLane="best" from="-672838526#0" to="52511313#0"/>
    <trip id="veh181" type="veh_passenger" depart="1014.24" departLane="best" departSpeed="max" from="273833832#0" to="723552318#2"/>
    <trip id="veh182" type="veh_passenger" depart="1019.85" departLane="best" from="185467797#4" to="672838526#0"/>
    <trip id="veh184" type="veh_passenger" depart="1031.05" departLane="best" from="273833832#2" to="177566541"/>
    <trip id="veh185" type="veh_passenger" depart="1036.66" departLane="best" from="439272705" to="177566558#1"/>
    <trip id="veh186" type="veh_passenger" depart="1042.26" departLane="best" from="52514847#1" to="273833832#6"/>
    <trip id="veh187" type="veh_passenger" depart="1047.86" departLane="best" departSpeed="max" from="177566537" to="-686142690"/>
    <trip id="veh189" type="veh_passenger" depart="1059.07" departLane="best" from="22843127#1" to="-723323006#0"/>
    <trip id="veh190" type="veh_passenger" depart="1064.67" departLane="best" from="-22843276#1" to="-723552318#2"/>
    <trip id="veh192" type="veh_passenger" depart="1075.88" departLane="best" from="177566559#5" to="-439272706#1"/>
    <trip id="veh194" type="veh_passenger" depart="1087.09" departLane="best" departSpeed="max" from="273833832#0" to="-22843127#2"/>
    <trip id="veh196" type="veh_passenger" depart="1098.30" departLane="best" from="52511313#3" to="366913700#1"/>
    <trip id="veh197" type="veh_passenger" depart="1103.90" departLane="best" from="177566523#2-AddedOnRampEdge" to="-104902792#1"/>
    <trip id="veh199" type="veh_passenger" depart="1115.11" departLane="best" from="52511313#2" to="672838526#1"/>
    <trip id="veh200" type="veh_passenger" depart="1120.71" departLane="best" from="177566523#7" to="273833832#6"/>
    <trip id="veh201" type="veh_passenger" depart="1126.31" departLane="best" from="177566523#1" to="22843276#0"/>
    <trip id="veh202" type="veh_passenger" depart="1131.92" departLane="best" from="177566523#6" to="-52514845#2"/>
    <trip id="veh203" type="veh_passenger" depart="1137.52" departLane="best" departSpeed="max" from="177566537" to="-439108069#1"/>
    <trip id="veh204" type="veh_passenger" depart="1143.12" departLane="best" from="22843125" to="-185467797#2"/>
    <trip id="veh205" type="veh_passenger" depart="1148.73" departLane="best" from="-185467797#2" to="195072878#0"/>
    <trip id="veh206" type="veh_passenger" depart="1154.33" departLane="best" from="-439272705" to="177566523#9"/>
    <trip id="veh207" type="veh_passenger" depart="1159.93" departLane="best" from="-215261251#0" to="177566523#11"/>
    <trip id="veh208" type="veh_passenger" depart="1165.54" departLane="best" from="-52663744#3" to="177566523#1"/>
    <trip id="veh209" type="veh_passenger" depart="1171.14" departLane="best" from="273833832#6" to="177566523#11"/>
    <trip id="veh210" type="veh_passenger" depart="1176.75" departLane="best" from="273833832#5" to="483187902#1"/>
    <trip id="veh211" type="veh_passenger" depart="1182.35" departLane="best" from="-672838526#1" to="-366913700#1"/>
    <trip id="veh212" type="veh_passenger" depart="1187.95" departLane="best" from="-185467797#0" to="177566556#5"/>
    <trip id="veh213" type="veh_passenger" depart="1193.56" departLane="best" from="992408934" to="177566523#11"/>
    <trip id="veh214" type="veh_passenger" depart="1199.16" departLane="best" departSpeed="max" from="22856174#0" to="366913701#1"/>
    <trip id="veh215" type="veh_passenger" depart="1204.76" departLane="best" departSpeed="max" from="22856174#0" to="273833832#7"/>
    <trip id="veh216" type="veh_passenger" depart="1210.37" departLane="best" from="672838526#0" to="-52656692"/>
    <trip id="veh217" type="veh_passenger" depart="1215.97" departLane="best" from="-185467797#0" to="-52511313#2"/>
    <trip id="veh218" type="veh_passenger" depart="1221.57" departLane="best" from="-439108069#0" to="22843127#1"/>
    <trip id="veh219" type="veh_passenger" depart="1227.18" departLane="best" departSpeed="max" from="177566572#0" to="-52664437#2"/>
    <trip id="veh220" type="veh_passenger" depart="1232.78" departLane="best" departSpeed="max" from="273833832#0" to="366913700#1"/>
    <trip id="veh221" type="veh_passenger" depart="1238.38" departLane="best" from="-52514845#2" to="177566566"/>
    <trip id="veh222" type="veh_passenger" depart="1243.99" departLane="best" from="273833832#5" to="-366913701#9"/>
    <trip id="veh224" type="veh_passenger" depart="1255.19" departLane="best" from="-366913701#5" to="-185467797#2"/>
    <trip id="veh225" type="veh_passenger" depart="1260.80" departLane="best" from="104902792#3" to="22843199"/>
    <trip id="veh226" type="veh_passenger" depart="1266.40" departLane="best" from="273833832#1" to="-22843276#1"/>
    <trip id="veh227" type="veh_passenger" depart="1272.01" departLane="best" departSpeed="max" from="273833832#0" to="185467797#0"/>
    <trip id="veh228" type="veh_passenger" depart="1277.61" departLane="best" from="52511313#1" to="177566559#8"/>
    <trip id="veh230" type="veh_passenger" depart="1288.82" departLane="best" from="366913700#2" to="177566523#11"/>
    <trip id="veh231" type="veh_passenger" depart="1294.42" departLane="best" from="177566523#8" to="177566523#11"/>
    <trip id="veh232" type="veh_passenger" depart="1300.02" departLane="best" from="177566558#1" to="177566523#10"/>
    <trip id="veh233" type="veh_passenger" depart="1305.63" departLane="best" from="52511313#1" to="439272706#0"/>
    <trip id="veh234" type="veh_passenger" depart="1311.23" departLane="best" from="-366913701#3" to="686142690"/>
    <trip id="veh235" type="veh_passenger" depart="1316.83" departLane="best" from="22843276#0" to="483187902#0"/>
    <trip id="veh236" type="veh_passenger" depart="1322.44" departLane="best" departSpeed="max" from="273833832#0" to="177566523#6"/>
    <trip id="veh237" type="veh_passenger" depart="1328.04" departLane="best" from="273833832#3" to="686607369"/>
    <trip id="veh238" type="veh_passenger" depart="1333.64" departLane="best" from="-692042225" to="439108069#0"/>
    <trip id="veh239" type="veh_passenger" depart="1339.25" departLane="best" from="177566559#5" to="177566541"/>
    <trip id="veh240" type="veh_passenger" depart="1344.85" departLane="best" from="177566523#9" to="273833832#4"/>
    <trip id="veh241" type="veh_passenger" depart="1350.46" departLane="best" from="-692042225" to="52511313#1"/>
    <trip id="veh243" type="veh_passenger" depart="1361.66" departLane="best" from="177566523#2-AddedOnRampEdge" to="-185467797#3"/>
    <trip id="veh244" type="veh_passenger" depart="1367.27" departLane="best" from="52511313#1" to="-52514846#3"/>
    <trip id="veh245" type="veh_passenger" depart="1372.87" departLane="best" from="-52663744#3" to="366913701#7"/>
    <trip id="veh246" type="veh_passenger" depart="1378.47" departLane="best" from="177566523#10" to="52514846#2"/>
    <trip id="veh247" type="veh_passenger" depart="1384.08" departLane="best" departSpeed="max" from="273833832#0" to="-723323006#2"/>
    <trip id="veh248" type="veh_passenger" depart="1389.68" departLane="best" from="-104902792#3" to="672838526#0"/>
    <trip id="veh249" type="veh_passenger" depart="1395.28" departLane="best" from="177566556#0" to="273833832#7"/>
    <trip id="veh250" type="veh_passenger" depart="1400.89" departLane="best" departSpeed="max" from="273833832#0" to="195072878#1"/>
    <trip id="veh251" type="veh_passenger" depart="1406.49" departLane="best" from="177566556#1" to="366913701#6"/>
    <trip id="veh252" type="veh_passenger" depart="1412.09" departLane="best" from="-366913700#4" to="-547023629#0"/>
    <trip id="veh253" type="veh_passenger" depart="1417.70" departLane="best" departSpeed="max" from="273833832#0" to="104902792#2"/>
    <trip id="veh254" type="veh_passenger" depart="1423.30" departLane="best" from="177566572#4" to="177566541"/>
    <trip id="veh255" type="veh_passenger" depart="1428.90" departLane="best" from="177566559#2" to="177566523#5"/>
    <trip id="veh258" type="veh_passenger" depart="1445.72" departLane="best" from="-52514846#3" to="-52664437#0"/>
    <trip id="veh259" type="veh_passenger" depart="1451.32" departLane="best" departSpeed="max" from="177566537" to="273833832#4"/>
    <trip id="veh260" type="veh_passenger" depart="1456.92" departLane="best" from="723323006#0" to="177566556#3"/>
    <trip id="veh261" type="veh_passenger" depart="1462.53" departLane="best" from="-723323006#2" to="-366913701#2"/>
    <trip id="veh262" type="veh_passenger" depart="1468.13" departLane="best" from="-52514846#6" to="-547023629#2"/>
    <trip id="veh263" type="veh_passenger" depart="1473.73" departLane="best" from="177566559#3" to="-723323006#0"/>
    <trip id="veh265" type="veh_passenger" depart="1484.94" departLane="best" departSpeed="max" from="273833832#0" to="-439108069#0"/>
    <trip id="veh266" type="veh_passenger" depart="1490.54" departLane="best" from="52514845#3" to="177566541"/>
    <trip id="veh267" type="veh_passenger" depart="1496.15" departLane="best" departSpeed="max" from="177566537" to="177566523#7"/>
    <trip id="veh268" type="veh_passenger" depart="1501.75" departLane="best" from="622415793#0" to="177566541"/>
    <trip id="veh269" type="veh_passenger" depart="1507.35" departLane="best" from="439108069#0" to="177566523#2-AddedOnRampEdge"/>
    <trip id="veh270" type="veh_passenger" depart="1512.96" departLane="best" from="-215261415" to="-52511313#1"/>
    <trip id="veh271" type="veh_passenger" depart="1518.56" departLane="best" departSpeed="max" from="177566572#0" to="104902792#2"/>
    <trip id="veh274" type="veh_passenger" depart="1535.37" departLane="best" from="366913701#0" to="-547023629#1"/>