<?xml version="1.0" encoding="UTF-8"?>

<!-- generated on 2021-12-05 22:05:05 by Eclipse SUMO netconvert Version 1.9.2
<configuration xmlns:xsi="http://www.w3.org/2001/XMLSchema-instance" xsi:noNamespaceSchemaLocation="http://sumo.dlr.de/xsd/netconvertConfiguration.xsd">

    <input>
        <type-files value="C:\Program%20Files%20(x86)\Eclipse\Sumo\data\typemap\osmNetconvert.typ.xml"/>
        <osm-files value="osm_bbox.osm.xml"/>
    </input>

    <output>
        <output-file value="osm.net.xml"/>
        <output.street-names value="true"/>
        <output.original-names value="true"/>
    </output>

    <projection>
        <proj.utm value="true"/>
    </projection>

    <processing>
        <geometry.remove value="true"/>
        <roundabouts.guess value="true"/>
        <lefthand value="true"/>
    </processing>

    <tls_building>
        <tls.discard-simple value="true"/>
        <tls.join value="true"/>
        <tls.guess-signals value="true"/>
        <tls.default-type value="actuated"/>
    </tls_building>

    <ramp_guessing>
        <ramps.guess value="true"/>
    </ramp_guessing>

    <edge_removal>
        <keep-edges.by-vclass value="passenger"/>
    </edge_removal>

    <junctions>
        <junctions.join value="true"/>
        <junctions.corner-detail value="5"/>
    </junctions>

    <report>
        <verbose value="true"/>
        <aggregate-warnings value="5"/>
    </report>

</configuration>
-->

<net version="1.9" junctionCornerDetail="5" lefthand="true" limitTurnSpeed="5.50" xmlns:xsi="http://www.w3.org/2001/XMLSchema-instance" xsi:noNamespaceSchemaLocation="http://sumo.dlr.de/xsd/net_file.xsd">

    <location netOffset="-279383.83,-2115229.82" convBoundary="0.00,-0.00,2525.20,2875.61" origBoundary="72.819690,19.118451,72.941679,19.144398" projParameter="+proj=utm +zone=43 +ellps=WGS84 +datum=WGS84 +units=m +no_defs"/>

    <type id="highway.bridleway" priority="1" numLanes="1" speed="2.78" allow="pedestrian" oneway="1" width="2.00"/>
    <type id="highway.bus_guideway" priority="1" numLanes="1" speed="27.78" allow="bus" oneway="1"/>
    <type id="highway.cycleway" priority="1" numLanes="1" speed="8.33" allow="bicycle" oneway="0" width="1.00"/>
    <type id="highway.footway" priority="1" numLanes="1" speed="2.78" allow="pedestrian" oneway="1" width="2.00"/>
    <type id="highway.ford" priority="1" numLanes="1" speed="2.78" allow="army" oneway="0"/>
    <type id="highway.living_street" priority="2" numLanes="1" speed="2.78" disallow="tram rail_urban rail rail_electric rail_fast ship" oneway="0"/>
    <type id="highway.motorway" priority="14" numLanes="2" speed="39.44" allow="private emergency authority army vip passenger hov taxi bus coach delivery truck trailer motorcycle evehicle custom1 custom2" oneway="1"/>
    <type id="highway.motorway_link" priority="9" numLanes="1" speed="22.22" allow="private emergency authority army vip passenger hov taxi bus coach delivery truck trailer motorcycle evehicle custom1 custom2" oneway="1"/>
    <type id="highway.path" priority="1" numLanes="1" speed="2.78" allow="pedestrian bicycle" oneway="0" width="2.00"/>
    <type id="highway.pedestrian" priority="1" numLanes="1" speed="2.78" allow="pedestrian" oneway="1" width="2.00"/>
    <type id="highway.primary" priority="12" numLanes="2" speed="27.78" disallow="tram rail_urban rail rail_electric rail_fast ship" oneway="0"/>
    <type id="highway.primary_link" priority="7" numLanes="1" speed="22.22" disallow="tram rail_urban rail rail_electric rail_fast ship" oneway="0"/>
    <type id="highway.raceway" priority="15" numLanes="2" speed="83.33" allow="vip" oneway="0"/>
    <type id="highway.residential" priority="3" numLanes="1" speed="13.89" disallow="tram rail_urban rail rail_electric rail_fast ship" oneway="0"/>
    <type id="highway.secondary" priority="11" numLanes="1" speed="27.78" disallow="tram rail_urban rail rail_electric rail_fast ship" oneway="0"/>
    <type id="highway.secondary_link" priority="6" numLanes="1" speed="22.22" disallow="tram rail_urban rail rail_electric rail_fast ship" oneway="0"/>
    <type id="highway.service" priority="1" numLanes="1" speed="5.56" allow="pedestrian delivery bicycle" oneway="0"/>
    <type id="highway.stairs" priority="1" numLanes="1" speed="1.39" allow="pedestrian" oneway="1" width="2.00"/>
    <type id="highway.step" priority="1" numLanes="1" speed="1.39" allow="pedestrian" oneway="1" width="2.00"/>
    <type id="highway.steps" priority="1" numLanes="1" speed="1.39" allow="pedestrian" oneway="1" width="2.00"/>
    <type id="highway.tertiary" priority="10" numLanes="1" speed="22.22" disallow="tram rail_urban rail rail_electric rail_fast ship" oneway="0"/>
    <type id="highway.tertiary_link" priority="5" numLanes="1" speed="22.22" disallow="tram rail_urban rail rail_electric rail_fast ship" oneway="0"/>
    <type id="highway.track" priority="1" numLanes="1" speed="5.56" allow="pedestrian motorcycle moped bicycle" oneway="0"/>
    <type id="highway.trunk" priority="13" numLanes="2" speed="27.78" disallow="pedestrian bicycle tram rail_urban rail rail_electric rail_fast ship" oneway="0"/>
    <type id="highway.trunk_link" priority="8" numLanes="1" speed="22.22" disallow="pedestrian bicycle tram rail_urban rail rail_electric rail_fast ship" oneway="0"/>
    <type id="highway.unclassified" priority="4" numLanes="1" speed="13.89" disallow="tram rail_urban rail rail_electric rail_fast ship" oneway="0"/>
    <type id="highway.unsurfaced" priority="1" numLanes="1" speed="8.33" disallow="tram rail_urban rail rail_electric rail_fast ship" oneway="0"/>
    <type id="railway.highspeed" priority="21" numLanes="1" speed="69.44" allow="rail_fast" oneway="1"/>
    <type id="railway.light_rail" priority="19" numLanes="1" speed="27.78" allow="rail_urban" oneway="1"/>
    <type id="railway.preserved" priority="16" numLanes="1" speed="27.78" allow="rail" oneway="1"/>
    <type id="railway.rail" priority="20" numLanes="1" speed="44.44" allow="rail" oneway="1"/>
    <type id="railway.subway" priority="18" numLanes="1" speed="27.78" allow="rail_urban" oneway="1"/>
    <type id="railway.tram" priority="17" numLanes="1" speed="13.89" allow="tram" oneway="1"/>

    <edge id=":1209663102_0" function="internal">
        <lane id=":1209663102_0_0" index="0" disallow="tram rail_urban rail rail_electric rail_fast ship" speed="5.51" length="8.44" shape="1586.85,843.48 1586.44,846.21 1585.46,847.77 1583.91,848.16 1581.81,847.39"/>
    </edge>
    <edge id=":1209663102_1" function="internal">
        <lane id=":1209663102_1_0" index="0" disallow="tram rail_urban rail rail_electric rail_fast ship" speed="3.65" length="4.67" shape="1586.85,843.48 1587.60,844.71 1588.39,845.14 1589.20,844.77 1590.05,843.61"/>
    </edge>
    <edge id=":1209663102_2" function="internal">
        <lane id=":1209663102_2_0" index="0" disallow="tram rail_urban rail rail_electric rail_fast ship" speed="12.10" length="13.22" shape="1592.80,856.14 1590.93,853.32 1590.09,850.36 1589.92,847.15 1590.05,843.61"/>
    </edge>
    <edge id=":1209663102_3" function="internal">
        <lane id=":1209663102_3_0" index="0" disallow="tram rail_urban rail rail_electric rail_fast ship" speed="22.22" length="14.12" shape="1592.80,856.14 1590.28,853.56 1587.68,851.30 1584.89,849.28 1581.81,847.39"/>
    </edge>
    <edge id=":1646887550_0" function="internal">
        <lane id=":1646887550_0_0" index="0" disallow="tram rail_urban rail rail_electric rail_fast ship" speed="3.65" length="4.67" shape="2251.80,1.33 2252.35,-0.01 2252.24,-0.89 2251.46,-1.33 2250.02,-1.33"/>
    </edge>
    <edge id=":1646887643_0" function="internal">
        <lane id=":1646887643_0_0" index="0" disallow="tram rail_urban rail rail_electric rail_fast ship" speed="6.30" length="9.04" shape="2119.36,777.37 2116.85,777.50 2114.98,776.77 2113.76,775.18 2113.17,772.73"/>
    </edge>
    <edge id=":1646887643_1" function="internal">
        <lane id=":1646887643_1_0" index="0" disallow="tram rail_urban rail rail_electric rail_fast ship" speed="22.22" length="14.27" shape="2119.36,777.37 2115.81,778.12 2112.41,778.94 2109.04,779.89 2105.58,780.99"/>
    </edge>
    <edge id=":1646887643_2" function="internal">
        <lane id=":1646887643_2_0" index="0" disallow="tram rail_urban rail rail_electric rail_fast ship" speed="7.42" length="9.91" shape="2109.98,773.03 2109.93,775.88 2109.17,778.16 2107.72,779.86 2105.58,780.99"/>
    </edge>
    <edge id=":1646887643_3" function="internal">
        <lane id=":1646887643_3_0" index="0" disallow="tram rail_urban rail rail_electric rail_fast ship" speed="3.65" length="4.67" shape="2109.98,773.03 2110.89,774.15 2111.72,774.48 2112.48,774.00 2113.17,772.73"/>
    </edge>
    <edge id=":177566523#2-AddedOnRampNode_0" function="internal">
        <lane id=":177566523#2-AddedOnRampNode_0_0" index="0" disallow="tram rail_urban rail rail_electric rail_fast ship" speed="27.78" length="8.00" shape="1951.35,986.34 1948.90,993.96"/>
        <lane id=":177566523#2-AddedOnRampNode_0_1" index="1" disallow="tram rail_urban rail rail_electric rail_fast ship" speed="27.78" length="8.00" shape="1954.40,987.32 1951.95,994.94"/>
        <lane id=":177566523#2-AddedOnRampNode_0_2" index="2" disallow="tram rail_urban rail rail_electric rail_fast ship" speed="27.78" length="8.00" shape="1957.44,988.30 1954.99,995.92"/>
    </edge>
    <edge id=":1879817481_0" function="internal">
        <lane id=":1879817481_0_0" index="0" disallow="tram rail_urban rail rail_electric rail_fast ship" speed="6.41" length="9.04" shape="1047.78,595.65 1046.88,597.97 1045.45,599.41 1043.50,599.96 1041.03,599.64"/>
    </edge>
    <edge id=":1879817481_1" function="internal">
        <lane id=":1879817481_1_0" index="0" disallow="tram rail_urban rail rail_electric rail_fast ship" speed="22.22" length="9.83" shape="1047.78,595.65 1047.11,598.48 1046.76,600.47 1046.73,602.46 1047.02,605.35"/>
    </edge>
    <edge id=":1879817481_2" function="internal">
        <lane id=":1879817481_2_0" index="0" disallow="tram rail_urban rail rail_electric rail_fast ship" speed="13.89" length="9.44" shape="1050.12,602.21 1041.03,599.64"/>
    </edge>
    <edge id=":1879817481_3" function="internal">
        <lane id=":1879817481_3_0" index="0" disallow="tram rail_urban rail rail_electric rail_fast ship" speed="4.76" length="5.68" shape="1050.12,602.21 1048.56,602.02 1047.53,602.48 1047.02,603.59 1047.02,605.35"/>
    </edge>
    <edge id=":1879817490_0" function="internal">
        <lane id=":1879817490_0_0" index="0" disallow="tram rail_urban rail rail_electric rail_fast ship" speed="5.81" length="8.18" shape="1055.92,611.96 1053.24,610.99 1051.60,609.78 1050.99,608.34 1051.42,606.66"/>
    </edge>
    <edge id=":1879817490_1" function="internal">
        <lane id=":1879817490_1_0" index="0" disallow="tram rail_urban rail rail_electric rail_fast ship" speed="27.78" length="15.10" shape="1055.92,611.96 1041.40,607.98"/>
        <lane id=":1879817490_1_1" index="1" disallow="tram rail_urban rail rail_electric rail_fast ship" speed="27.78" length="15.10" shape="1055.10,615.05 1040.53,611.06"/>
        <lane id=":1879817490_1_2" index="2" disallow="tram rail_urban rail rail_electric rail_fast ship" speed="27.78" length="15.10" shape="1054.28,618.14 1039.66,614.14"/>
    </edge>
    <edge id=":1879817490_4" function="internal">
        <lane id=":1879817490_4_0" index="0" disallow="tram rail_urban rail rail_electric rail_fast ship" speed="7.16" length="11.41" shape="1054.28,618.14 1050.46,617.47 1047.56,617.71 1045.59,618.87 1044.53,620.95"/>
    </edge>
    <edge id=":1879817490_5" function="internal">
        <lane id=":1879817490_5_0" index="0" disallow="tram rail_urban rail rail_electric rail_fast ship" speed="22.22" length="15.54" shape="1047.64,621.68 1048.39,617.91 1049.09,614.01 1050.01,610.19 1051.42,606.66"/>
    </edge>
    <edge id=":1879817490_6" function="internal">
        <lane id=":1879817490_6_0" index="0" disallow="tram rail_urban rail rail_electric rail_fast ship" speed="7.56" length="3.63" shape="1047.64,621.68 1047.58,619.35 1046.87,618.27"/>
    </edge>
    <edge id=":1879817490_7" function="internal">
        <lane id=":1879817490_7_0" index="0" disallow="tram rail_urban rail rail_electric rail_fast ship" speed="3.65" length="2.34" shape="1047.64,621.68 1047.14,620.33 1046.45,619.76"/>
    </edge>
    <edge id=":1879817490_11" function="internal">
        <lane id=":1879817490_11_0" index="0" disallow="tram rail_urban rail rail_electric rail_fast ship" speed="7.56" length="8.49" shape="1046.87,618.27 1046.23,617.31 1043.59,615.58 1039.66,614.14"/>
    </edge>
    <edge id=":1879817490_12" function="internal">
        <lane id=":1879817490_12_0" index="0" disallow="tram rail_urban rail rail_electric rail_fast ship" speed="3.65" length="2.34" shape="1046.45,619.76 1045.58,619.97 1044.53,620.95"/>
    </edge>
    <edge id=":1879817490_8" function="internal">
        <lane id=":1879817490_8_0" index="0" disallow="tram rail_urban rail rail_electric rail_fast ship" speed="5.39" length="7.68" shape="1047.05,605.55 1046.89,607.26 1045.90,608.24 1044.07,608.48 1041.40,607.98"/>
    </edge>
    <edge id=":1879817490_9" function="internal">
        <lane id=":1879817490_9_0" index="0" disallow="tram rail_urban rail rail_electric rail_fast ship" speed="22.22" length="15.69" shape="1047.05,605.55 1047.08,609.36 1046.45,613.29 1045.49,617.19 1044.53,620.95"/>
    </edge>
    <edge id=":1879817490_10" function="internal">
        <lane id=":1879817490_10_0" index="0" disallow="tram rail_urban rail rail_electric rail_fast ship" speed="5.05" length="4.37" shape="1047.05,605.55 1047.68,608.48 1048.54,609.54"/>
    </edge>
    <edge id=":1879817490_13" function="internal">
        <lane id=":1879817490_13_0" index="0" disallow="tram rail_urban rail rail_electric rail_fast ship" speed="5.05" length="4.34" shape="1048.54,609.54 1048.62,609.64 1049.86,609.03 1051.42,606.66"/>
    </edge>
    <edge id=":1879817526_0" function="internal">
        <lane id=":1879817526_0_0" index="0" disallow="tram rail_urban rail rail_electric rail_fast ship" speed="6.64" length="9.52" shape="1414.04,695.76 1412.96,698.18 1411.39,699.67 1409.33,700.23 1406.78,699.85"/>
    </edge>
    <edge id=":1879817526_1" function="internal">
        <lane id=":1879817526_1_0" index="0" disallow="tram rail_urban rail rail_electric rail_fast ship" speed="3.65" length="4.68" shape="1414.04,695.76 1414.39,697.16 1415.01,697.81 1415.90,697.70 1417.06,696.84"/>
    </edge>
    <edge id=":1879817526_2" function="internal">
        <lane id=":1879817526_2_0" index="0" disallow="tram rail_urban rail rail_electric rail_fast ship" speed="6.39" length="8.94" shape="1420.76,703.67 1418.54,702.75 1417.18,701.30 1416.69,699.33 1417.06,696.84"/>
    </edge>
    <edge id=":1879817526_3" function="internal">
        <lane id=":1879817526_3_0" index="0" disallow="tram rail_urban rail rail_electric rail_fast ship" speed="13.89" length="14.50" shape="1420.76,703.67 1406.78,699.85"/>
    </edge>
    <edge id=":1879817556_0" function="internal">
        <lane id=":1879817556_0_0" index="0" disallow="tram rail_urban rail rail_electric rail_fast ship" speed="13.89" length="16.31" shape="1457.37,735.02 1455.60,738.56 1453.94,742.41 1452.43,746.34 1451.09,750.06"/>
    </edge>
    <edge id=":1879817556_1" function="internal">
        <lane id=":1879817556_1_0" index="0" disallow="tram rail_urban rail rail_electric rail_fast ship" speed="6.98" length="1.09" shape="1457.37,735.02 1457.31,736.11"/>
    </edge>
    <edge id=":1879817556_2" function="internal">
        <lane id=":1879817556_2_0" index="0" disallow="tram rail_urban rail rail_electric rail_fast ship" speed="3.65" length="2.34" shape="1457.37,735.02 1457.49,736.46 1457.99,737.20"/>
    </edge>
    <edge id=":1879817556_11" function="internal">
        <lane id=":1879817556_11_0" index="0" disallow="tram rail_urban rail rail_electric rail_fast ship" speed="6.98" length="7.74" shape="1457.31,736.11 1458.12,737.62 1459.79,739.56 1462.31,741.94"/>
    </edge>
    <edge id=":1879817556_12" function="internal">
        <lane id=":1879817556_12_0" index="0" disallow="tram rail_urban rail rail_electric rail_fast ship" speed="3.65" length="2.34" shape="1457.99,737.20 1458.89,737.23 1460.17,736.57"/>
    </edge>
    <edge id=":1879817556_3" function="internal">
        <lane id=":1879817556_3_0" index="0" disallow="tram rail_urban rail rail_electric rail_fast ship" speed="5.14" length="6.77" shape="1454.11,751.12 1455.15,748.59 1456.16,747.02 1457.14,746.41 1458.10,746.75"/>
    </edge>
    <edge id=":1879817556_4" function="internal">
        <lane id=":1879817556_4_0" index="0" disallow="tram rail_urban rail rail_electric rail_fast ship" speed="13.89" length="15.77" shape="1454.11,751.12 1455.42,747.47 1456.85,743.71 1458.43,740.03 1460.17,736.57"/>
    </edge>
    <edge id=":1879817556_5" function="internal">
        <lane id=":1879817556_5_0" index="0" disallow="tram rail_urban rail rail_electric rail_fast ship" speed="3.65" length="2.34" shape="1454.11,751.12 1453.75,749.72 1453.13,749.08"/>
    </edge>
    <edge id=":1879817556_13" function="internal">
        <lane id=":1879817556_13_0" index="0" disallow="tram rail_urban rail rail_electric rail_fast ship" speed="3.65" length="2.34" shape="1453.13,749.08 1452.24,749.19 1451.09,750.06"/>
    </edge>
    <edge id=":1879817556_6" function="internal">
        <lane id=":1879817556_6_0" index="0" disallow="tram rail_urban rail rail_electric rail_fast ship" speed="7.24" length="10.66" shape="1448.53,740.84 1450.56,742.26 1451.67,744.27 1451.85,746.87 1451.09,750.06"/>
    </edge>
    <edge id=":1879817556_7" function="internal">
        <lane id=":1879817556_7_0" index="0" disallow="tram rail_urban rail rail_electric rail_fast ship" speed="27.78" length="12.28" shape="1448.53,740.84 1451.59,742.21 1453.65,743.27 1455.54,744.59 1458.10,746.75"/>
        <lane id=":1879817556_7_1" index="1" disallow="tram rail_urban rail rail_electric rail_fast ship" speed="27.78" length="12.28" shape="1449.84,737.92 1453.16,739.41 1455.39,740.56 1457.43,742.00 1460.21,744.34"/>
        <lane id=":1879817556_7_2" index="2" disallow="tram rail_urban rail rail_electric rail_fast ship" speed="27.78" length="12.28" shape="1451.15,735.00 1454.73,736.61 1457.12,737.85 1459.32,739.41 1462.31,741.94"/>
    </edge>
    <edge id=":1879817556_10" function="internal">
        <lane id=":1879817556_10_0" index="0" disallow="tram rail_urban rail rail_electric rail_fast ship" speed="6.89" length="9.59" shape="1451.15,735.00 1454.68,736.43 1457.36,737.17 1459.19,737.22 1460.17,736.57"/>
    </edge>
    <edge id=":1879817582_0" function="internal">
        <lane id=":1879817582_0_0" index="0" disallow="tram rail_urban rail rail_electric rail_fast ship" speed="5.81" length="9.14" shape="1467.76,763.92 1469.23,761.68 1470.88,760.77 1472.73,761.18 1474.76,762.93"/>
    </edge>
    <edge id=":1879817582_1" function="internal">
        <lane id=":1879817582_1_0" index="0" disallow="tram rail_urban rail rail_electric rail_fast ship" speed="13.89" length="23.65" shape="1467.76,763.92 1468.98,759.03 1469.48,752.31 1469.30,745.54 1468.50,740.50"/>
    </edge>
    <edge id=":1879817582_2" function="internal">
        <lane id=":1879817582_2_0" index="0" disallow="tram rail_urban rail rail_electric rail_fast ship" speed="3.65" length="4.67" shape="1467.76,763.92 1467.55,762.49 1467.00,761.79 1466.10,761.81 1464.87,762.55"/>
    </edge>
    <edge id=":1879817582_3" function="internal">
        <lane id=":1879817582_3_0" index="0" disallow="tram rail_urban rail rail_electric rail_fast ship" speed="10.08" length="18.24" shape="1458.25,746.88 1462.38,751.12 1464.86,755.14 1465.69,758.95 1464.87,762.55"/>
    </edge>
    <edge id=":1879817582_4" function="internal">
        <lane id=":1879817582_4_0" index="0" disallow="tram rail_urban rail rail_electric rail_fast ship" speed="27.78" length="23.47" shape="1458.25,746.88 1463.41,751.38 1466.90,754.51 1470.19,757.85 1474.76,762.93"/>
        <lane id=":1879817582_4_1" index="1" disallow="tram rail_urban rail rail_electric rail_fast ship" speed="27.78" length="23.47" shape="1460.36,744.48 1465.61,749.05 1469.16,752.24 1472.51,755.64 1477.16,760.81"/>
        <lane id=":1879817582_4_2" index="2" disallow="tram rail_urban rail rail_electric rail_fast ship" speed="27.78" length="23.47" shape="1462.46,742.07 1467.81,746.72 1471.42,749.97 1474.82,753.43 1479.56,758.70"/>
    </edge>
    <edge id=":1879817582_7" function="internal">
        <lane id=":1879817582_7_0" index="0" disallow="tram rail_urban rail rail_electric rail_fast ship" speed="5.79" length="12.33" shape="1462.46,742.07 1466.18,744.89 1468.42,745.57 1469.19,744.10 1468.50,740.50"/>
    </edge>
    <edge id=":1879817582_8" function="internal">
        <lane id=":1879817582_8_0" index="0" disallow="tram rail_urban rail rail_electric rail_fast ship" speed="13.89" length="21.36" shape="1465.44,741.44 1466.27,746.12 1466.50,752.09 1466.06,758.02 1464.87,762.55"/>
    </edge>
    <edge id=":1879817582_9" function="internal">
        <lane id=":1879817582_9_0" index="0" disallow="tram rail_urban rail rail_electric rail_fast ship" speed="20.84" length="22.42" shape="1465.44,741.44 1467.23,744.97 1470.28,748.72 1474.45,753.14 1479.56,758.70"/>
    </edge>
    <edge id=":1879817582_10" function="internal">
        <lane id=":1879817582_10_0" index="0" disallow="tram rail_urban rail rail_electric rail_fast ship" speed="3.65" length="4.67" shape="1465.44,741.44 1466.56,742.35 1467.44,742.50 1468.09,741.88 1468.50,740.50"/>
    </edge>
    <edge id=":1879817614_0" function="internal">
        <lane id=":1879817614_0_0" index="0" disallow="tram rail_urban rail rail_electric rail_fast ship" speed="27.78" length="0.69" shape="2116.92,786.88 2116.58,786.95 2116.36,787.00 2116.13,787.07 2115.81,787.18"/>
        <lane id=":1879817614_0_1" index="1" disallow="tram rail_urban rail rail_electric rail_fast ship" speed="27.78" length="0.69" shape="2117.53,790.02 2117.33,790.06 2117.20,790.09 2117.06,790.13 2116.87,790.20"/>
        <lane id=":1879817614_0_2" index="2" disallow="tram rail_urban rail rail_electric rail_fast ship" speed="27.78" length="0.69" shape="2118.15,793.16 2118.08,793.17 2118.04,793.18 2117.99,793.20 2117.93,793.22"/>
    </edge>
    <edge id=":1879817616_0" function="internal">
        <lane id=":1879817616_0_0" index="0" disallow="tram rail_urban rail rail_electric rail_fast ship" speed="22.22" length="9.62" shape="2075.64,791.08 2072.94,792.00 2071.11,792.69 2069.33,793.49 2066.76,794.74"/>
    </edge>
    <edge id=":1879817616_1" function="internal">
        <lane id=":1879817616_1_0" index="0" disallow="tram rail_urban rail rail_electric rail_fast ship" speed="6.07" length="7.98" shape="2075.64,791.08 2073.08,792.17 2071.42,793.41 2070.68,794.80 2070.85,796.34"/>
    </edge>
    <edge id=":1879817616_2" function="internal">
        <lane id=":1879817616_2_0" index="0" disallow="tram rail_urban rail rail_electric rail_fast ship" speed="6.00" length="8.01" shape="2073.83,795.18 2072.91,793.92 2071.43,793.43 2069.38,793.70 2066.76,794.74"/>
    </edge>
    <edge id=":1879817616_3" function="internal">
        <lane id=":1879817616_3_0" index="0" disallow="tram rail_urban rail rail_electric rail_fast ship" speed="3.65" length="4.67" shape="2073.83,795.18 2072.65,794.35 2071.76,794.27 2071.16,794.93 2070.85,796.34"/>
    </edge>
    <edge id=":1879817619_0" function="internal">
        <lane id=":1879817619_0_0" index="0" disallow="tram rail_urban rail rail_electric rail_fast ship" speed="27.78" length="0.44" shape="2118.40,806.58 2118.45,806.56 2118.48,806.56 2118.50,806.55 2118.55,806.54"/>
        <lane id=":1879817619_0_1" index="1" disallow="tram rail_urban rail rail_electric rail_fast ship" speed="27.78" length="0.44" shape="2117.50,803.51 2117.62,803.47 2117.71,803.45 2117.80,803.43 2117.93,803.40"/>
        <lane id=":1879817619_0_2" index="2" disallow="tram rail_urban rail rail_electric rail_fast ship" speed="27.78" length="0.44" shape="2116.59,800.44 2116.80,800.38 2116.95,800.34 2117.10,800.30 2117.31,800.26"/>
    </edge>
    <edge id=":1879817626_0" function="internal">
        <lane id=":1879817626_0_0" index="0" disallow="tram rail_urban rail rail_electric rail_fast ship" speed="20.84" length="3.16" shape="1559.72,822.73 1559.11,822.03 1558.70,821.53 1558.31,821.02 1557.76,820.26"/>
    </edge>
    <edge id=":1879817626_1" function="internal">
        <lane id=":1879817626_1_0" index="0" disallow="tram rail_urban rail rail_electric rail_fast ship" speed="27.78" length="3.16" shape="1557.32,824.85 1555.24,822.48"/>
        <lane id=":1879817626_1_1" index="1" disallow="tram rail_urban rail rail_electric rail_fast ship" speed="27.78" length="3.16" shape="1554.92,826.96 1552.84,824.59"/>
        <lane id=":1879817626_1_2" index="2" disallow="tram rail_urban rail rail_electric rail_fast ship" speed="27.78" length="3.16" shape="1552.52,829.08 1550.43,826.71"/>
    </edge>
    <edge id=":1879817629_0" function="internal">
        <lane id=":1879817629_0_0" index="0" disallow="tram rail_urban rail rail_electric rail_fast ship" speed="22.22" length="9.00" shape="2078.76,824.80 2081.11,823.53 2082.77,822.77 2084.52,822.21 2087.10,821.57"/>
    </edge>
    <edge id=":1879817629_1" function="internal">
        <lane id=":1879817629_1_0" index="0" disallow="tram rail_urban rail rail_electric rail_fast ship" speed="5.85" length="6.39" shape="2078.76,824.80 2079.98,824.16 2081.77,823.15 2083.34,822.05 2083.86,821.15"/>
    </edge>
    <edge id=":1879817629_2" function="internal">
        <lane id=":1879817629_2_0" index="0" disallow="tram rail_urban rail rail_electric rail_fast ship" speed="5.85" length="6.39" shape="2080.88,822.31 2081.86,822.62 2083.76,822.38 2085.77,821.91 2087.10,821.57"/>
    </edge>
    <edge id=":1879817629_3" function="internal">
        <lane id=":1879817629_3_0" index="0" disallow="tram rail_urban rail rail_electric rail_fast ship" speed="3.65" length="4.67" shape="2080.88,822.31 2082.05,823.14 2082.94,823.22 2083.55,822.56 2083.86,821.15"/>
    </edge>
    <edge id=":1879817632_0" function="internal">
        <lane id=":1879817632_0_0" index="0" disallow="tram rail_urban rail rail_electric rail_fast ship" speed="25.00" length="19.40" shape="1581.63,847.29 1578.69,845.03 1575.97,841.94 1572.88,837.96 1568.82,833.05"/>
        <lane id=":1879817632_0_1" index="1" disallow="tram rail_urban rail rail_electric rail_fast ship" speed="25.00" length="19.40" shape="1581.63,847.29 1578.33,845.38 1574.81,843.04 1570.89,839.79 1566.41,835.17"/>
    </edge>
    <edge id=":1879817632_2" function="internal">
        <lane id=":1879817632_2_0" index="0" disallow="tram rail_urban rail rail_electric rail_fast ship" speed="27.78" length="20.34" shape="1579.86,850.42 1566.41,835.17"/>
        <lane id=":1879817632_2_1" index="1" disallow="tram rail_urban rail rail_electric rail_fast ship" speed="27.78" length="20.34" shape="1577.46,852.54 1564.01,837.28"/>
        <lane id=":1879817632_2_2" index="2" disallow="tram rail_urban rail rail_electric rail_fast ship" speed="27.78" length="20.34" shape="1575.06,854.66 1561.61,839.40"/>
    </edge>
    <edge id=":1879817644_0" function="internal">
        <lane id=":1879817644_0_0" index="0" disallow="tram rail_urban rail rail_electric rail_fast ship" speed="22.22" length="3.39" shape="1992.51,853.48 1990.85,856.44"/>
    </edge>
    <edge id=":1879817644_1" function="internal">
        <lane id=":1879817644_1_0" index="0" disallow="tram rail_urban rail rail_electric rail_fast ship" speed="22.22" length="3.19" shape="1995.25,855.13 1994.77,855.94 1994.45,856.51 1994.17,857.09 1993.78,857.95"/>
    </edge>
    <edge id=":1879817651_0" function="internal">
        <lane id=":1879817651_0_0" index="0" disallow="tram rail_urban rail rail_electric rail_fast ship" speed="25.00" length="2.71" shape="1978.42,892.32 1978.09,893.05 1977.86,893.56 1977.66,894.07 1977.41,894.83"/>
    </edge>
    <edge id=":1879817651_1" function="internal">
        <lane id=":1879817651_1_0" index="0" disallow="tram rail_urban rail rail_electric rail_fast ship" speed="27.78" length="1.68" shape="1981.28,893.78 1980.99,894.36 1980.81,894.77 1980.65,895.19 1980.45,895.81"/>
        <lane id=":1879817651_1_1" index="1" disallow="tram rail_urban rail rail_electric rail_fast ship" speed="27.78" length="1.68" shape="1984.13,895.23 1983.91,895.68 1983.77,895.99 1983.65,896.31 1983.50,896.79"/>
        <lane id=":1879817651_1_2" index="2" disallow="tram rail_urban rail rail_electric rail_fast ship" speed="27.78" length="1.68" shape="1986.98,896.69 1986.83,897.00 1986.73,897.21 1986.65,897.44 1986.55,897.77"/>
    </edge>
    <edge id=":1879817671_0" function="internal">
        <lane id=":1879817671_0_0" index="0" disallow="tram rail_urban rail rail_electric rail_fast ship" speed="20.84" length="14.00" shape="1779.96,1087.42 1776.98,1085.87 1774.34,1084.44 1771.75,1082.43 1768.89,1079.14"/>
    </edge>
    <edge id=":1879817671_1" function="internal">
        <lane id=":1879817671_1_0" index="0" disallow="tram rail_urban rail rail_electric rail_fast ship" speed="27.78" length="14.00" shape="1776.56,1091.07 1768.89,1079.14"/>
        <lane id=":1879817671_1_1" index="1" disallow="tram rail_urban rail rail_electric rail_fast ship" speed="27.78" length="14.00" shape="1773.89,1092.83 1766.32,1081.05"/>
        <lane id=":1879817671_1_2" index="2" disallow="tram rail_urban rail rail_electric rail_fast ship" speed="27.78" length="14.00" shape="1771.21,1094.59 1763.75,1082.95"/>
    </edge>
    <edge id=":1879817672_0" function="internal">
        <lane id=":1879817672_0_0" index="0" disallow="tram rail_urban rail rail_electric rail_fast ship" speed="7.32" length="12.70" shape="1758.79,1076.78 1756.32,1078.31 1755.17,1080.62 1755.32,1083.70 1756.78,1087.56"/>
    </edge>