<?xml version="1.0" encoding="UTF-8"?>

<!-- generated on 2021-12-06 00:46:06 by Eclipse SUMO duarouter Version 1.9.2
<configuration xmlns:xsi="http://www.w3.org/2001/XMLSchema-instance" xsi:noNamespaceSchemaLocation="http://sumo.dlr.de/xsd/duarouterConfiguration.xsd">

    <input>
        <net-file value="C:\Users\saurabh\Sumo\2021-12-06-00-46-04\osm.net.xml"/>
        <route-files value="C:\Users\saurabh\Sumo\2021-12-06-00-46-04\osm.passenger.trips.xml"/>
    </input>

    <output>
        <output-file value="C:\Users\saurabh\Sumo\2021-12-06-00-46-04\osm.passenger.trips.xml.tmp"/>
        <write-trips value="true"/>
    </output>

    <time>
        <begin value="0"/>
        <end value="3600"/>
    </time>

    <report>
        <no-warnings value="true"/>
        <ignore-errors value="true"/>
        <no-step-log value="true"/>
    </report>

</configuration>
-->

<routes xmlns:xsi="http://www.w3.org/2001/XMLSchema-instance" xsi:noNamespaceSchemaLocation="http://sumo.dlr.de/xsd/routes_file.xsd">
    <vType id="veh_passenger" vClass="passenger"/>
    <trip id="veh0" type="veh_passenger" depart="0.00" departLane="best" from="22843276#1" to="-22843127#0"/>
    <trip id="veh1" type="veh_passenger" depart="9.67" departLane="best" from="273833832#2" to="273833832#3"/>
    <trip id="veh2" type="veh_passenger" depart="19.34" departLane="best" departSpeed="max" from="273833832#0" to="177566559#2"/>
    <trip id="veh3" type="veh_passenger" depart="29.00" departLane="best" from="-622415769#1" to="185467797#0"/>
    <trip id="veh4" type="veh_passenger" depart="38.67" departLane="best" from="366913701#0" to="-185467797#0"/>
    <trip id="veh5" type="veh_passenger" depart="48.34" departLane="best" from="366913701#0" to="273833832#4"/>
    <trip id="veh6" type="veh_passenger" depart="58.01" departLane="best" departSpeed="max" from="177566523#0" to="-52663744#0"/>
    <trip id="veh8" type="veh_passenger" depart="77.35" departLane="best" from="366913701#0" to="273833832#5"/>
    <trip id="veh9" type="veh_passenger" depart="87.01" departLane="best" from="177566558#3" to="692042225"/>
    <trip id="veh10" type="veh_passenger" depart="96.68" departLane="best" from="177566523#2" to="177566559#3"/>
    <trip id="veh11" type="veh_passenger" depart="106.35" departLane="best" from="52514845#0" to="177566559#4"/>
    <trip id="veh12" type="veh_passenger" depart="116.02" departLane="best" departSpeed="max" from="273833832#0" to="-22843276#1"/>
    <trip id="veh13" type="veh_passenger" depart="125.69" departLane="best" from="-622415793#0" to="177566523#3"/>
    <trip id="veh14" type="veh_passenger" depart="135.36" departLane="best" from="-366913701#3" to="177566523#2"/>
    <trip id="veh15" type="veh_passenger" depart="145.02" departLane="best" from="22843276#1" to="177566523#7"/>
    <trip id="veh16" type="veh_passenger" depart="154.69" departLane="best" from="-723552318#2" to="547023629#2"/>
    <trip id="veh17" type="veh_passenger" depart="164.36" departLane="best" departSpeed="max" from="273833832#0" to="22843127#0"/>
    <trip id="veh18" type="veh_passenger" depart="174.03" departLane="best" from="-52663744#2" to="273833832#5"/>
    <trip id="veh19" type="veh_passenger" depart="183.70" departLane="best" from="-52663744#1" to="177566523#7"/>
    <trip id="veh21" type="veh_passenger" depart="203.03" departLane="best" from="366913701#6" to="273833832#5"/>
    <trip id="veh22" type="veh_passenger" depart="212.70" departLane="best" from="-622415793#1" to="-22843127#1"/>
    <trip id="veh23" type="veh_passenger" depart="222.37" departLane="best" departSpeed="max" from="177566523#0" to="104902793"/>
    <trip id="veh24" type="veh_passenger" depart="232.04" departLane="best" from="52664437#1" to="177566556#2"/>
    <trip id="veh25" type="veh_passenger" depart="241.71" departLane="best" from="177566559#3" to="52663744#2"/>
    <trip id="veh26" type="veh_passenger" depart="251.37" departLane="best" from="177566523#3" to="-622415793#0"/>
    <trip id="veh27" type="veh_passenger" depart="261.04" departLane="best" from="-366913701#5" to="22843276#0"/>
    <trip id="veh28" type="veh_passenger" depart="270.71" departLane="best" from="366913700#2" to="177566523#7"/>
    <trip id="veh29" type="veh_passenger" depart="280.38" departLane="best" from="-366913700#2" to="177566523#7"/>
    <trip id="veh30" type="veh_passenger" depart="290.05" departLane="best" from="672840525" to="52511313#1"/>
    <trip id="veh31" type="veh_passenger" depart="299.72" departLane="best" from="-185467797#1" to="273833832#5"/>
    <trip id="veh32" type="veh_passenger" depart="309.38" departLane="best" departSpeed="max" from="273833832#0" to="177566559#0"/>
    <trip id="veh34" type="veh_passenger" depart="328.72" departLane="best" from="-366913701#5" to="177566523#7"/>
    <trip id="veh35" type="veh_passenger" depart="338.39" departLane="best" departSpeed="max" from="177566558#0" to="-52664437#0"/>
    <trip id="veh36" type="veh_passenger" depart="348.06" departLane="best" from="52664437#0" to="52514845#1"/>
    <trip id="veh38" type="veh_passenger" depart="367.39" departLane="best" from="22843125" to="-52663744#0"/>
    <trip id="veh39" type="veh_passenger" depart="377.06" departLane="best" from="273833832#4" to="177566559#1"/>
    <trip id="veh40" type="veh_passenger" depart="386.73" departLane="best" from="52514846#1" to="366913701#3"/>
    <trip id="veh41" type="veh_passenger" depart="396.40" departLane="best" departSpeed="max" from="177566523#0" to="-366913700#1"/>
    <trip id="veh42" type="veh_passenger" depart="406.07" departLane="best" from="52514846#1" to="622415769#1"/>
    <trip id="veh44" type="veh_passenger" depart="425.40" departLane="best" from="-366913700#3" to="273833832#5"/>
    <trip id="veh45" type="veh_passenger" depart="435.07" departLane="best" from="273833832#4" to="-52514845#0"/>
    <trip id="veh46" type="veh_passenger" depart="444.74" departLane="best" from="177566556#0" to="177566559#2"/>
    <trip id="veh47" type="veh_passenger" depart="454.41" departLane="best" from="177566523#5" to="-622415769#1"/>
    <trip id="veh48" type="veh_passenger" depart="464.08" departLane="best" from="177566558#4" to="273833832#5"/>
    <trip id="veh49" type="veh_passenger" depart="473.74" departLane="best" from="-547023629#1" to="177566523#4"/>
    <trip id="veh52" type="veh_passenger" depart="502.75" departLane="best" from="-622415793#1" to="52663744#3"/>
    <trip id="veh53" type="veh_passenger" depart="512.42" departLane="best" from="-622415793#2" to="273833832#3"/>
    <trip id="veh54" type="veh_passenger" depart="522.09" departLane="best" from="-622415769#0" to="-52514845#0"/>
    <trip id="veh55" type="veh_passenger" depart="531.75" departLane="best" from="547023629#2" to="177566559#4"/>
    <trip id="veh56" type="veh_passenger" depart="541.42" departLane="best" from="366913701#0" to="-547023629#0"/>
    <trip id="veh57" type="veh_passenger" depart="551.09" departLane="best" from="-366913701#2" to="177566523#7"/>
    <trip id="veh58" type="veh_passenger" depart="560.76" departLane="best" from="177566523#5" to="177566556#2"/>
    <trip id="veh59" type="veh_passenger" depart="570.43" departLane="best" from="273833832#2" to="273833832#3"/>
    <trip id="veh60" type="veh_passenger" depart="580.09" departLane="best" from="723552318#1" to="-366913701#3"/>
    <trip id="veh61" type="veh_passenger" depart="589.76" departLane="best" from="177566523#4" to="177566523#5"/>
    <trip id="veh62" type="veh_passenger" depart="599.43" departLane="best" from="-52664437#1" to="177566556#0"/>
    <trip id="veh63" type="veh_passenger" depart="609.10" departLane="best" from="177566523#5" to="177566523#2"/>
    <trip id="veh64" type="veh_passenger" depart="618.77" departLane="best" from="-692042225" to="547023629#0"/>
    <trip id="veh65" type="veh_passenger" depart="628.44" departLane="best" from="177566558#6" to="-366913700#0"/>
    <trip id="veh66" type="veh_passenger" depart="638.10" departLane="best" from="992408934" to="366913701#4"/>
    <trip id="veh67" type="veh_passenger" depart="647.77" departLane="best" from="177566523#4" to="-366913700#1"/>
    <trip id="veh68" type="veh_passenger" depart="657.44" departLane="best" from="-723552318#2" to="366913700#0"/>
    <trip id="veh69" type="veh_passenger" depart="667.11" departLane="best" from="177566523#6" to="177566523#7"/>
    <trip id="veh70" type="veh_passenger" depart="676.78" departLane="best" from="622415793#1" to="992408934"/>
    <trip id="veh71" type="veh_passenger" depart="686.45" departLane="best" from="177566558#7" to="273833832#5"/>
    <trip id="veh72" type="veh_passenger" depart="696.11" departLane="best" from="-52663744#0" to="177566523#3"/>
    <trip id="veh73" type="veh_passenger" depart="705.78" departLane="best" from="672840525" to="177566559#4"/>
    <trip id="veh74" type="veh_passenger" depart="715.45" departLane="best" from="177566558#4" to="273833832#5"/>
    <trip id="veh76" type="veh_passenger" depart="734.79" departLane="best" departSpeed="max" from="177566558#0" to="52511312"/>
    <trip id="veh77" type="veh_passenger" depart="744.45" departLane="best" from="-366913701#0" to="-52664437#1"/>
    <trip id="veh78" type="veh_passenger" depart="754.12" departLane="best" from="52663744#1" to="-699397460"/>
    <trip id="veh80" type="veh_passenger" depart="773.46" departLane="best" from="-547023629#1" to="273833832#5"/>
    <trip id="veh81" type="veh_passenger" depart="783.13" departLane="best" from="-622415793#2" to="177566523#7"/>
    <trip id="veh82" type="veh_passenger" depart="792.80" departLane="best" departSpeed="max" from="273833832#0" to="177566523#3"/>
    <trip id="veh83" type="veh_passenger" depart="802.46" departLane="best" from="-366913700#3" to="177566556#2"/>
    <trip id="veh84" type="veh_passenger" depart="812.13" departLane="best" from="-366913700#3" to="-622415769#1"/>
    <trip id="veh85" type="veh_passenger" depart="821.80" departLane="best" from="-723552318#2" to="547023629#1"/>
    <trip id="veh86" type="veh_passenger" depart="831.47" departLane="best" from="177566523#2" to="-52663744#1"/>
    <trip id="veh87" type="veh_passenger" depart="841.14" departLane="best" from="366913701#4" to="273833832#5"/>
    <trip id="veh88" type="veh_passenger" depart="850.81" departLane="best" departSpeed="max" from="273833832#0" to="-185467797#0"/>
    <trip id="veh89" type="veh_passenger" depart="860.47" departLane="best" from="366913701#1" to="177566523#3"/>
    <trip id="veh90" type="veh_passenger" depart="870.14" departLane="best" departSpeed="max" from="273833832#0" to="622415769#0"/>
    <trip id="veh91" type="veh_passenger" depart="879.81" departLane="best" from="-52514845#0" to="-366913701#6"/>
    <trip id="veh92" type="veh_passenger" depart="889.48" departLane="best" from="-366913701#4" to="177566559#3"/>
    <trip id="veh93" type="veh_passenger" depart="899.15" departLane="best" departSpeed="max" from="273833832#0" to="-547023629#2"/>
    <trip id="veh94" type="veh_passenger" depart="908.81" departLane="best" from="22843276#0" to="-992408934"/>
    <trip id="veh95" type="veh_passenger" depart="918.48" departLane="best" departSpeed="max" from="177566558#0" to="52663744#3"/>
    <trip id="veh96" type="veh_passenger" depart="928.15" departLane="best" from="177566523#5" to="177566523#2"/>
    <trip id="veh97" type="veh_passenger" depart="937.82" departLane="best" from="-104902793" to="273833832#5"/>
    <trip id="veh98" type="veh_passenger" depart="947.49" departLane="best" from="22843276#1" to="-992408934"/>
    <trip id="veh99" type="veh_passenger" depart="957.16" departLane="best" from="-366913700#4" to="52514846#1"/>
    <trip id="veh100" type="veh_passenger" depart="966.82" departLane="best" from="366913701#5" to="177566559#4"/>
    <trip id="veh101" type="veh_passenger" depart="976.49" departLane="best" from="-52514846#0" to="-52511313#1"/>
    <trip id="veh102" type="veh_passenger" depart="986.16" departLane="best" departSpeed="max" from="177566523#0" to="52663744#2"/>
    <trip id="veh103" type="veh_passenger" depart="995.83" departLane="best" from="366913700#3" to="52511313#1"/>
    <trip id="veh104" type="veh_passenger" depart="1005.50" departLane="best" from="52663744#3" to="-622415769#0"/>
    <trip id="veh105" type="veh_passenger" depart="1015.17" departLane="best" from="-52663744#0" to="547023629#1"/>
    <trip id="veh106" type="veh_passenger" depart="1024.83" departLane="best" from="52514845#1" to="692042225"/>
    <trip id="veh107" type="veh_passenger" depart="1034.50" departLane="best" from="-22843127#0" to="273833832#5"/>
    <trip id="veh108" type="veh_passenger" depart="1044.17" departLane="best" departSpeed="max" from="177566523#0" to="547023629#1"/>
    <trip id="veh109" type="veh_passenger" depart="1053.84" departLane="best" from="366913700#1" to="-366913701#5"/>
    <trip id="veh110" type="veh_passenger" depart="1063.51" departLane="best" from="52514846#0" to="52511313#1"/>
    <trip id="veh111" type="veh_passenger" depart="1073.18" departLane="best" from="-622415769#1" to="366913701#0"/>
    <trip id="veh113" type="veh_passenger" depart="1092.51" departLane="best" departSpeed="max" from="177566523#0" to="52514845#0"/>
    <trip id="veh114" type="veh_passenger" depart="1102.18" departLane="best" from="622415769#0" to="-366913701#6"/>
    <trip id="veh115" type="veh_passenger" depart="1111.85" departLane="best" from="672840525" to="-52664437#0"/>
    <trip id="veh116" type="veh_passenger" depart="1121.52" departLane="best" from="622415793#2" to="-992408934"/>
    <trip id="veh117" type="veh_passenger" depart="1131.18" departLane="best" from="-366913701#4" to="177566523#7"/>
    <trip id="veh118" type="veh_passenger" depart="1140.85" departLane="best" from="22843125" to="177566558#5"/>
    <trip id="veh119" type="veh_passenger" depart="1150.52" departLane="best" from="177566523#3" to="177566559#4"/>
    <trip id="veh120" type="veh_passenger" depart="1160.19" departLane="best" from="-699397460" to="273833832#5"/>
    <trip id="veh121" type="veh_passenger" depart="1169.86" departLane="best" from="-104902793" to="547023629#0"/>
    <trip id="veh122" type="veh_passenger" depart="1179.53" departLane="best" from="177566558#4" to="273833832#5"/>
    <trip id="veh123" type="veh_passenger" depart="1189.19" departLane="best" from="273833832#2" to="273833832#3"/>
    <trip id="veh124" type="veh_passenger" depart="1198.86" departLane="best" departSpeed="max" from="177566523#0" to="-366913700#3"/>
    <trip id="veh125" type="veh_passenger" depart="1208.53" departLane="best" departSpeed="max" from="273833832#0" to="177566523#5"/>
    <trip id="veh126" type="veh_passenger" depart="1218.20" departLane="best" departSpeed="max" from="177566523#0" to="366913701#6"/>
    <trip id="veh127" type="veh_passenger" depart="1227.87" departLane="best" departSpeed="max" from="273833832#0" to="177566523#3"/>
    <trip id="veh128" type="veh_passenger" depart="1237.54" departLane="best" departSpeed="max" from="177566523#0" to="177566523#7"/>
    <trip id="veh129" type="veh_passenger" depart="1247.20" departLane="best" from="-52511313#1" to="177566523#7"/>
    <trip id="veh130" type="veh_passenger" depart="1256.87" departLane="best" from="52663744#3" to="22843127#1"/>
    <trip id="veh131" type="veh_passenger" depart="1266.54" departLane="best" departSpeed="max" from="177566523#0" to="177566559#2"/>
    <trip id="veh132" type="veh_passenger" depart="1276.21" departLane="best" from="177566523#5" to="177566559#4"/>
    <trip id="veh133" type="veh_passenger" depart="1285.88" departLane="best" departSpeed="max" from="273833832#0" to="177566556#2"/>
    <trip id="veh134" type="veh_passenger" depart="1295.54" departLane="best" from="177566523#6" to="-622415769#1"/>
    <trip id="veh136" type="veh_passenger" depart="1314.88" departLane="best" from="366913700#3" to="-52663744#3"/>
    <trip id="veh137" type="veh_passenger" depart="1324.55" departLane="best" from="-366913701#0" to="177566558#5"/>
    <trip id="veh138" type="veh_passenger" depart="1334.22" departLane="best" from="366913701#2" to="273833832#5"/>
    <trip id="veh139" type="veh_passenger" depart="1343.89" departLane="best" departSpeed="max" from="273833832#0" to="-622415793#1"/>
    <trip id="veh140" type="veh_passenger" depart="1353.55" departLane="best" from="-547023629#0" to="-22843127#0"/>
    <trip id="veh141" type="veh_passenger" depart="1363.22" departLane="best" from="-672840525" to="177566556#2"/>
    <trip id="veh142" type="veh_passenger" depart="1372.89" departLane="best" from="52511312" to="-366913700#4"/>
    <trip id="veh143" type="veh_passenger" depart="1382.56" departLane="best" from="177566523#4" to="22843276#1"/>
    <trip id="veh144" type="veh_passenger" depart="1392.23" departLane="best" departSpeed="max" from="177566558#0" to="-692042225"/>
    <trip id="veh145" type="veh_passenger" depart="1401.90" departLane="best" departSpeed="max" from="273833832#0" to="-104902793"/>
    <trip id="veh146" type="veh_passenger" depart="1411.56" departLane="best" from="273833832#3" to="273833832#5"/>
    <trip id="veh147" type="veh_passenger" depart="1421.23" departLane="best" from="-366913701#4" to="177566523#7"/>
    <trip id="veh148" type="veh_passenger" depart="1430.90" departLane="best" from="-52663744#3" to="622415793#1"/>
    <trip id="veh149" type="veh_passenger" depart="1440.57" departLane="best" from="177566558#1" to="-366913700#0"/>
    <trip id="veh150" type="veh_passenger" depart="1450.24" departLane="best" from="-692042225" to="366913701#6"/>
    <trip id="veh151" type="veh_passenger" depart="1459.90" departLane="best" departSpeed="max" from="273833832#0" to="723552318#1"/>
    <trip id="veh152" type="veh_passenger" depart="1469.57" departLane="best" from="185467797#0" to="622415793#0"/>
    <trip id="veh153" type="veh_passenger" depart="1479.24" departLane="best" from="52663744#1" to="22843127#1"/>
    <trip id="veh155" type="veh_passenger" depart="1498.58" departLane="best" from="52663744#3" to="273833832#5"/>
    <trip id="veh157" type="veh_passenger" depart="1517.91" departLane="best" from="22843134" to="177566523#2"/>
    <trip id="veh158" type="veh_passenger" depart="1527.58" departLane="best" from="177566558#4" to="-52514845#1"/>
    <trip id="veh159" type="veh_passenger" depart="1537.25" departLane="best" from="-622415793#1" to="273833832#4"/>
    <trip id="veh160" type="veh_passenger" depart="1546.92" departLane="best" departSpeed="max" from="273833832#0" to="-366913700#2"/>
    <trip id="veh161" type="veh_passenger" depart="1556.59" departLane="best" from="177566523#4" to="177566559#1"/>
    <trip id="veh162" type="veh_passenger" depart="1566.26" departLane="best" from="177566523#5" to="52663744#3"/>
    <trip id="veh163" type="veh_passenger" depart="1575.92" departLane="best" from="177566559#3" to="273833832#4"/>
    <trip id="veh164" type="veh_passenger" depart="1585.59" departLane="best" from="52511313#1" to="273833832#5"/>
    <trip id="veh165" type="veh_passenger" depart="1595.26" departLane="best" from="177566523#2" to="-185467797#0"/>
    <trip id="veh166" type="veh_passenger" depart="1604.93" departLane="best" from="52511313#1" to="622415793#0"/>
    <trip id="veh167" type="veh_passenger" depart="1614.60" departLane="best" from="177566523#5" to="273833832#5"/>
    <trip id="veh168" type="veh_passenger" depart="1624.26" departLane="best" from="-622415769#1" to="-622415793#0"/>
    <trip id="veh169" type="veh_passenger" depart="1633.93" departLane="best" departSpeed="max" from="177566523#0" to="273833832#3"/>
    <trip id="veh170" type="veh_passenger" depart="1643.60" departLane="best" from="177566523#4" to="-52663744#2"/>
    <trip id="veh172" type="veh_passenger" depart="1662.94" departLane="best" from="177566523#3" to="177566559#4"/>
    <trip id="veh174" type="veh_passenger" depart="1682.27" departLane="best" from="-52514845#0" to="177566556#2"/>
    <trip id="veh175" type="veh_passenger" depart="1691.94" departLane="best" from="-22843276#1" to="177566523#7"/>
    <trip id="veh176" type="veh_passenger" depart="1701.61" departLane="best" from="-622415769#0" to="177566523#5"/>
    <trip id="veh177" type="veh_passenger" depart="1711.28" departLane="best" from="273833832#4" to="177566523#7"/>
    <trip id="veh178" type="veh_passenger" depart="1720.95" departLane="best" from="-22843125" to="177566559#1"/>
    <trip id="veh179" type="veh_passenger" depart="1730.62" departLane="best" from="992408934" to="177566523#6"/>
    <trip id="veh180" type="veh_passenger" depart="1740.28" departLane="best" departSpeed="max" from="273833832#0" to="273833832#5"/>
    <trip id="veh181" type="veh_passenger" depart="1749.95" departLane="best" departSpeed="max" from="273833832#0" to="273833832#5"/>
    <trip id="veh182" type="veh_passenger" depart="1759.62" departLane="best" from="622415793#0" to="-547023629#1"/>
    <trip id="veh183" type="veh_passenger" depart="1769.29" departLane="best" from="-22843125" to="-52663744#0"/>
    <trip id="veh184" type="veh_passenger" depart="1778.96" departLane="best" from="-52511313#1" to="273833832#3"/>
    <trip id="veh185" type="veh_passenger" depart="1788.63" departLane="best" departSpeed="max" from="273833832#0" to="273833832#5"/>
    <trip id="veh186" type="veh_passenger" depart="1798.29" departLane="best" from="-52663744#2" to="22843127#0"/>
    <trip id="veh187" type="veh_passenger" depart="1807.96" departLane="best" from="273833832#3" to="-366913701#6"/>
    <trip id="veh188" type="veh_passenger" depart="1817.63" departLane="best" from="-366913701#4" to="-22843127#0"/>
    <trip id="veh189" type="veh_passenger" depart="1827.30" departLane="best" departSpeed="max" from="177566523#0" to="273833832#3"/>
    <trip id="veh190" type="veh_passenger" depart="1836.97" departLane="best" from="622415793#1" to="177566523#7"/>
    <trip id="veh191" type="veh_passenger" depart="1846.63" departLane="best" departSpeed="max" from="273833832#0" to="-366913700#4"/>
    <trip id="veh192" type="veh_passenger" depart="1856.30" departLane="best" departSpeed="max" from="273833832#0" to="22843276#0"/>
    <trip id="veh193" type="veh_passenger" depart="1865.97" departLane="best" from="-366913701#3" to="273833832#5"/>
    <trip id="veh195" type="veh_passenger" depart="1885.31" departLane="best" from="-52511312" to="723552318#1"/>
    <trip id="veh196" type="veh_passenger" depart="1894.98" departLane="best" from="177566523#5" to="177566523#7"/>
    <trip id="veh197" type="veh_passenger" depart="1904.64" departLane="best" departSpeed="max" from="177566558#0" to="177566523#5"/>
    <trip id="veh198" type="veh_passenger" depart="1914.31" departLane="best" from="-366913701#4" to="622415793#1"/>
    <trip id="veh199" type="veh_passenger" depart="1923.98" departLane="best" from="177566523#5" to="273833832#5"/>
    <trip id="veh200" type="veh_passenger" depart="1933.65" departLane="best" from="-723552318#2" to="52511312"/>
    <trip id="veh201" type="veh_passenger" depart="1943.32" departLane="best" from="52663744#0" to="-692042225"/>
    <trip id="veh203" type="veh_passenger" depart="1962.65" departLane="best" from="-622415769#0" to="366913700#2"/>
    <trip id="veh204" type="veh_passenger" depart="1972.32" departLane="best" departSpeed="max" from="177566523#0" to="52514846#1"/>
    <trip id="veh205" type="veh_passenger" depart="1981.99" departLane="best" departSpeed="max" from="273833832#0" to="177566523#2"/>
    <trip id="veh206" type="veh_passenger" depart="1991.66" departLane="best" from="-185467797#0" to="622415769#1"/>
    <trip id="veh207" type="veh_passenger" depart="2001.33" departLane="best" from="-366913701#0" to="273833832#5"/>
    <trip id="veh208" type="veh_passenger" depart="2010.99" departLane="best" departSpeed="max" from="273833832#0" to="273833832#0"/>
    <trip id="veh209" type="veh_passenger" depart="2020.66" departLane="best" departSpeed="max" from="177566558#0" to="366913700#1"/>
    <trip id="veh210" type="veh_passenger" depart="2030.33" departLane="best" departSpeed="max" from="273833832#0" to="177566523#4"/>
    <trip id="veh211" type="veh_passenger" depart="2040.00" departLane="best" from="177566559#2" to="177566556#2"/>
    <trip id="veh212" type="veh_passenger" depart="2049.67" departLane="best" from="177566558#2" to="177566523#7"/>
    <trip id="veh213" type="veh_passenger" depart="2059.34" departLane="best" departSpeed="max" from="273833832#0" to="104902793"/>
    <trip id="veh214" type="veh_passenger" depart="2069.00" departLane="best" from="-52664437#1" to="-52511312"/>
    <trip id="veh215" type="veh_passenger" depart="2078.67" departLane="best" from="177566558#3" to="273833832#5"/>
    <trip id="veh216" type="veh_passenger" depart="2088.34" departLane="best" from="-52664437#0" to="-622415769#1"/>
    <trip id="veh218" type="veh_passenger" depart="2107.68" departLane="best" from="692042225" to="177566558#7"/>
    <trip id="veh219" type="veh_passenger" depart="2117.35" departLane="best" departSpeed="max" from="177566523#0" to="-366913701#4"/>
    <trip id="veh220" type="veh_passenger" depart="2127.01" departLane="best" from="-52664437#1" to="-622415793#1"/>
    <trip id="veh221" type="veh_passenger" depart="2136.68" departLane="best" from="-52663746" to="-185467797#1"/>
    <trip id="veh222" type="veh_passenger" depart="2146.35" departLane="best" from="692042225" to="177566559#3"/>
    <trip id="veh223" type="veh_passenger" depart="2156.02" departLane="best" departSpeed="max" from="273833832#0" to="-52511313#1"/>
    <trip id="veh225" type="veh_passenger" depart="2175.35" departLane="best" from="52514846#0" to="177566559#4"/>
    <trip id="veh226" type="veh_passenger" depart="2185.02" departLane="best" from="177566523#7" to="177566523#7"/>
    <trip id="veh227" type="veh_passenger" depart="2194.69" departLane="best" from="-52664437#0" to="-366913700#0"/>
    <trip id="veh228" type="veh_passenger" depart="2204.36" departLane="best" from="622415769#0" to="177566556#2"/>
    <trip id="veh229" type="veh_passenger" depart="2214.03" departLane="best" from="366913701#2" to="177566523#7"/>
    <trip id="veh230" type="veh_passenger" depart="2223.70" departLane="best" from="723552318#2" to="-52511312"/>
    <trip id="veh231" type="veh_passenger" depart="2233.36" departLane="best" from="177566523#6" to="52511313#1"/>
    <trip id="veh232" type="veh_passenger" depart="2243.03" departLane="best" from="273833832#2" to="622415769#1"/>
    <trip id="veh233" type="veh_passenger" depart="2252.70" departLane="best" departSpeed="max" from="273833832#0" to="-52663744#1"/>
    <trip id="veh234" type="veh_passenger" depart="2262.37" departLane="best" from="-52663744#3" to="-366913700#4"/>
    <trip id="veh235" type="veh_passenger" depart="2272.04" departLane="best" from="-104902793" to="177566556#1"/>
    <trip id="veh236" type="veh_passenger" depart="2281.71" departLane="best" from="-622415793#1" to="273833832#5"/>
    <trip id="veh237" type="veh_passenger" depart="2291.37" departLane="best" departSpeed="max" from="273833832#0" to="177566556#1"/>
    <trip id="veh238" type="veh_passenger" depart="2301.04" departLane="best" departSpeed="max" from="273833832#0" to="547023629#0"/>
    <trip id="veh239" type="veh_passenger" depart="2310.71" departLane="best" departSpeed="max" from="273833832#0" to="547023629#2"/>
    <trip id="veh240" type="veh_passenger" depart="2320.38" departLane="best" departSpeed="max" from="273833832#0" to="52663746"/>
    <trip id="veh241" type="veh_passenger" depart="2330.05" departLane="best" from="-52663744#2" to="177566523#4"/>
    <trip id="veh242" type="veh_passenger" depart="2339.72" departLane="best" from="273833832#3" to="177566559#4"/>
    <trip id="veh243" type="veh_passenger" depart="2349.38" departLane="best" departSpeed="max" from="177566523#0" to="-52511313#1"/>
    <trip id="veh244" type="veh_passenger" depart="2359.05" departLane="best" departSpeed="max" from="273833832#0" to="273833832#4"/>
    <trip id="veh245" type="veh_passenger" depart="2368.72" departLane="best" departSpeed="max" from="177566558#0" to="-366913701#0"/>
    <trip id="veh246" type="veh_passenger" depart="2378.39" departLane="best" from="-22843134" to="177566523#7"/>
    <trip id="veh247" type="veh_passenger" depart="2388.06" departLane="best" departSpeed="max" from="177566523#0" to="-723552318#1"/>
    <trip id="veh248" type="veh_passenger" depart="2397.72" departLane="best" from="366913701#5" to="177566559#4"/>
    <trip id="veh249" type="veh_passenger" depart="2407.39" departLane="best" from="622415793#0" to="992408934"/>
    <trip id="veh250" type="veh_passenger" depart="2417.06" departLane="best" departSpeed="max" from="273833832#0" to="104902793"/>
    <trip id="veh251" type="veh_passenger" depart="2426.73" departLane="best" from="-22843276#0" to="273833832#5"/>
    <trip id="veh252" type="veh_passenger" depart="2436.40" departLane="best" departSpeed="max" from="177566558#0" to="-366913701#2"/>
    <trip id="veh253" type="veh_passenger" depart="2446.07" departLane="best" departSpeed="max" from="177566523#0" to="177566523#5"/>
    <trip id="veh254" type="veh_passenger" depart="2455.73" departLane="best" departSpeed="max" from="273833832#0" to="52511313#1"/>
    <trip id="veh255" type="veh_passenger" depart="2465.40" departLane="best" departSpeed="max" from="177566523#0" to="273833832#4"/>
    <trip id="veh256" type="veh_passenger" depart="2475.07" departLane="best" departSpeed="max" from="177566523#0" to="622415769#1"/>
    <trip id="veh257" type="veh_passenger" depart="2484.74" departLane="best" departSpeed="max" from="177566523#0" to="672840525"/>
    <trip id="veh258" type="veh_passenger" depart="2494.41" departLane="best" from="723552318#1" to="273833832#2"/>
    <trip id="veh259" type="veh_passenger" depart="2504.08" departLane="best" from="177566558#4" to="177566523#7"/>
    <trip id="veh260" type="veh_passenger" depart="2513.74" departLane="best" from="-52664437#0" to="177566523#7"/>