<?xml version="1.0" encoding="UTF-8"?>

<!-- generated on 2021-12-06 00:46:06 by Eclipse SUMO polyconvert Version 1.9.2
<configuration xmlns:xsi="http://www.w3.org/2001/XMLSchema-instance" xsi:noNamespaceSchemaLocation="http://sumo.dlr.de/xsd/polyconvertConfiguration.xsd">

    <input>
        <net-file value="osm.net.xml"/>
        <osm-files value="osm_bbox.osm.xml"/>
        <osm.keep-full-type value="true"/>
        <type-file value="C:\Program%20Files%20(x86)\Eclipse\Sumo\data\typemap\osmPolyconvert.typ.xml"/>
    </input>

    <output>
        <output-file value="osm.poly.xml"/>
    </output>

    <processing>
        <poi-layer-offset value="5"/>
    </processing>

    <report>
        <verbose value="true"/>
    </report>

</configuration>
-->

<additional xmlns:xsi="http://www.w3.org/2001/XMLSchema-instance" xsi:noNamespaceSchemaLocation="http://sumo.dlr.de/xsd/additional_file.xsd">
    <location netOffset="-270676.52,-2115352.71" convBoundary="0.00,-423.14,12818.81,2799.82" origBoundary="72.819690,19.115651,72.941679,19.143641" projParameter="+proj=utm +zone=43 +ellps=WGS84 +datum=WGS84 +units=m +no_defs"/>

    <poly id="156931858" type="landuse.residential" color="235,235,227" fill="1" layer="-3.00" shape="10677.290928,735.535864 10612.410904,739.108812 10607.396183,697.082806 10602.571992,624.185077 10592.345619,523.582386 10598.413727,511.718251 10599.077231,447.170170 10596.193641,418.859491 10593.848345,365.020858 10609.700214,368.762969 10628.645113,385.688581 10619.385625,470.789335 10624.373587,510.567988 10637.687704,529.243547 10658.133671,539.662978 10667.701427,545.971109 10709.552696,695.303198 10677.290928,735.535864"/>
    <poly id="177566574" type="landuse.residential" color="235,235,227" fill="1" layer="-3.00" shape="10261.540560,-84.300418 10298.817097,-24.300800 10343.368456,47.415295 10370.878429,156.083192 10424.254219,300.782390 10430.580987,365.468773 10388.187516,408.623823 10326.360727,354.076152 10304.904853,354.331677 10285.979667,432.749506 10392.719861,455.173050 10484.820183,516.468972 10461.305938,543.599081 10477.363159,585.825819 10461.711857,598.922371 10473.859146,630.079087 10525.198628,620.610285 10531.189784,649.160796 10511.349652,929.281654 10531.557690,930.347673 10525.589593,985.082488 10537.289828,985.773659 10548.495025,941.329097 10582.617257,938.110712 10576.688458,873.220284 10547.923110,878.235060 10565.166959,724.811888 10602.529241,714.369138 10587.280678,523.343685 10591.577995,505.056557 10594.018087,449.190136 10584.388038,336.788406 10495.418129,271.501888 10437.868427,242.955984 10424.622343,162.828644 10453.673735,88.896630 10435.405861,48.423462 10396.575383,11.671738 10335.169946,-15.344367 10319.946250,-46.730150 10300.408281,-75.396135 10282.380839,-143.364513 10185.505057,-313.664858 10168.007964,-360.037486 10171.292869,-416.478793 10142.417921,-423.143549 10134.845941,-395.272989 10132.356679,-367.462983 10133.348909,-331.002719 10154.040712,-270.019553 10243.745802,-115.046561 10261.540560,-84.300418"/>
    <poly id="353182374" type="building.yes" color="255,230,230" fill="1" layer="-1.00" shape="10389.095422,711.151785 10401.253036,711.350263 10401.404714,701.992386 10389.247094,701.793907 10389.095422,711.151785"/>
    <poly id="353182377" type="building.yes" color="255,230,230" fill="1" layer="-1.00" shape="10375.137206,684.357008 10389.614328,686.675880 10391.094876,677.556842 10376.617879,675.249039 10375.137206,684.357008"/>
    <poly id="353182379" type="building.yes" color="255,230,230" fill="1" layer="-1.00" shape="10462.646423,873.702832 10481.302389,876.990661 10483.503014,864.707464 10464.846905,861.408560 10462.646423,873.702832"/>
    <poly id="353182380" type="building.yes" color="255,230,230" fill="1" layer="-1.00" shape="10359.688268,736.525318 10371.963198,736.855245 10375.004572,706.802089 10363.855114,705.539756 10359.688268,736.525318"/>
    <poly id="353182383" type="building.yes" color="255,230,230" fill="1" layer="-1.00" shape="10386.755719,730.312535 10400.811616,731.728502 10401.791805,722.128242 10387.735769,720.701203 10386.755719,730.312535"/>
    <poly id="353182389" type="building.yes" color="255,230,230" fill="1" layer="-1.00" shape="10366.681938,679.563750 10375.178409,680.746956 10377.779091,662.291722 10369.293134,661.108389 10366.681938,679.563750"/>
    <poly id="353182392" type="building.yes" color="255,230,230" fill="1" layer="-1.00" shape="10316.341287,664.197076 10340.165239,671.054939 10345.493740,652.777583 10321.669768,645.919711 10316.341287,664.197076"/>
    <poly id="353182394" type="building.yes" color="255,230,230" fill="1" layer="-1.00" shape="10392.169393,683.833099 10403.259174,686.269822 10407.514538,667.130558 10396.424746,664.693831 10392.169393,683.833099"/>
    <poly id="353182403" type="building.yes" color="255,230,230" fill="1" layer="-1.00" shape="10329.728457,742.883316 10343.403671,743.262979 10343.567921,737.614161 10349.989692,737.792340 10350.219904,729.728981 10330.112515,729.182333 10329.728457,742.883316"/>
    <poly id="353193443" type="building.yes" color="255,230,230" fill="1" layer="-1.00" shape="10446.708448,695.617934 10454.673241,696.342469 10456.053725,681.467050 10452.945751,681.182951 10453.578788,674.244175 10440.293507,673.029363 10439.519769,681.409210 10447.063140,682.094470 10446.485334,688.368253 10450.952428,688.780112 10450.701134,691.540098 10447.108466,691.206409 10446.708448,695.617934"/>
    <poly id="353193446" type="building.yes" color="255,230,230" fill="1" layer="-1.00" shape="10474.148075,796.702217 10484.072639,797.624877 10484.146672,796.771431 10490.762960,797.379160 10490.689058,798.243677 10501.498561,799.244391 10502.349116,790.243586 10496.575680,789.714399 10496.454568,791.033441 10490.733744,790.503629 10490.826978,789.494943 10474.960349,788.022961 10474.148075,796.702217"/>
    <poly id="353193485" type="building.yes" color="255,230,230" fill="1" layer="-1.00" shape="10470.107806,772.025932 10480.185214,772.526026 10479.936197,777.245776 10483.621705,777.423354 10483.553337,778.752840 10497.200631,779.442969 10497.466217,774.346565 10500.593769,774.508642 10500.696454,772.525484 10505.519313,772.767035 10506.980573,744.338207 10497.882405,743.881804 10497.266823,755.825034 10500.668095,755.994926 10500.428014,760.581702 10497.479605,760.439637 10496.915829,771.430037 10482.141832,770.686884 10483.618303,741.770690 10472.909001,741.233825 10472.764776,744.147548 10474.102189,744.220207 10473.709738,751.920105 10471.150924,751.795552 10470.756629,759.340460 10472.441416,759.420056 10472.149539,764.959665 10470.475144,764.868873 10470.107806,772.025932"/>
    <poly id="353193492" type="building.yes" color="255,230,230" fill="1" layer="-1.00" shape="10440.169097,757.169030 10454.715965,758.280238 10455.609584,746.710151 10441.073230,745.598815 10440.169097,757.169030"/>
    <poly id="353193500" type="building.yes" color="255,230,230" fill="1" layer="-1.00" shape="10382.449387,793.774734 10389.378217,794.998753 10390.917558,786.399410 10383.988857,785.186461 10382.449387,793.774734"/>
    <poly id="353193505" type="building.yes" color="255,230,230" fill="1" layer="-1.00" shape="10443.555867,722.527864 10459.556847,723.787853 10460.893750,707.019595 10444.892888,705.770675 10443.555867,722.527864"/>
    <poly id="353193509" type="building.yes" color="255,230,230" fill="1" layer="-1.00" shape="10419.192059,777.271358 10433.199104,778.123241 10433.842562,767.641211 10419.846032,766.789202 10419.192059,777.271358"/>
    <poly id="353193510" type="building.yes" color="255,230,230" fill="1" layer="-1.00" shape="10413.904138,798.958468 10429.818899,800.053367 10430.546533,789.570334 10414.631763,788.475434 10413.904138,798.958468"/>
    <poly id="353193518" type="building.yes" color="255,230,230" fill="1" layer="-1.00" shape="10359.174732,786.190595 10362.039487,786.377923 10361.762996,790.555464 10375.844355,791.461779 10376.510933,781.156624 10359.575465,780.073926 10359.174732,786.190595"/>
    <poly id="353193521" type="building.yes" color="255,230,230" fill="1" layer="-1.00" shape="10468.776112,821.058722 10474.388936,821.357294 10474.344626,822.055374 10476.977351,822.201192 10477.011007,821.492166 10481.054797,821.709766 10481.667349,810.397688 10469.378134,809.746768 10468.776112,821.058722"/>
    <poly id="353193523" type="building.yes" color="255,230,230" fill="1" layer="-1.00" shape="10488.960621,835.168121 10504.177319,836.858219 10505.796427,822.577868 10498.072128,821.717587 10497.557939,826.263337 10493.279494,825.782792 10493.812751,821.070731 10490.598655,820.710385 10488.960621,835.168121"/>
    <poly id="353203904" type="building.yes" color="255,230,230" fill="1" layer="-1.00" shape="10203.655329,587.845414 10215.947832,583.458246 10221.051794,597.569950 10231.279913,593.927089 10225.903791,579.054638 10237.798159,574.816169 10234.794325,566.492386 10220.552514,571.567105 10222.206830,576.153462 10216.537309,578.169742 10214.817877,573.418076 10200.314197,578.595582 10203.655329,587.845414"/>
    <poly id="353203912" type="building.yes" color="255,230,230" fill="1" layer="-1.00" shape="10662.866893,603.161431 10676.634203,598.889910 10670.880527,580.556243 10668.930302,581.166263 10667.836574,577.691509 10669.052851,577.311662 10662.325527,555.867198 10661.098726,556.247172 10659.906474,552.452494 10661.133275,552.072521 10656.834509,538.382974 10648.896929,540.835759 10647.715459,537.063098 10642.619503,538.640601 10662.866893,603.161431"/>
    <poly id="353203929" type="building.yes" color="255,230,230" fill="1" layer="-1.00" shape="10619.296847,664.178433 10622.888065,664.390379 10622.389279,672.888733 10636.996292,673.744715 10637.400667,667.041190 10640.770647,667.233626 10641.568748,653.815631 10638.093409,653.613375 10638.355100,649.070637 10639.555594,649.133865 10639.897637,643.383296 10632.831074,642.969091 10632.926676,641.273899 10627.892678,640.979461 10628.033124,638.630472 10617.954603,638.041725 10617.351406,648.379316 10620.215912,648.544545 10619.296847,664.178433"/>
    <poly id="353203947" type="building.yes" color="255,230,230" fill="1" layer="-1.00" shape="10266.347443,658.514645 10274.928012,660.571514 10279.672541,640.983488 10271.091964,638.926616 10266.347443,658.514645"/>
    <poly id="353203976" type="building.yes" color="255,230,230" fill="1" layer="-1.00" shape="10686.939354,678.720114 10701.260625,675.017775 10685.272993,613.812234 10668.780348,618.116158 10686.939354,678.720114"/>
    <poly id="353204016" type="building.yes" color="255,230,230" fill="1" layer="-1.00" shape="10248.474983,654.763706 10262.800017,658.446186 10265.305917,648.827735 10250.991398,645.145127 10248.474983,654.763706"/>
    <poly id="353204033" type="building.yes" color="255,230,230" fill="1" layer="-1.00" shape="10235.630436,603.984246 10248.815876,606.528781 10250.651630,597.195120 10245.061589,596.165566 10237.455661,594.650709 10235.630436,603.984246"/>
    <poly id="353204036" type="building.yes" color="255,230,230" fill="1" layer="-1.00" shape="10460.493624,593.832556 10469.458783,589.296940 10465.407543,581.384199 10467.960037,580.091580 10463.865518,572.079704 10452.347857,577.907943 10460.493624,593.832556"/>
    <poly id="353204037" type="building.yes" color="255,230,230" fill="1" layer="-1.00" shape="10247.667089,654.086850 10250.203158,646.117807 10236.435087,640.601772 10225.445546,628.918593 10221.166964,633.730659 10232.289930,646.895932 10247.667089,654.086850"/>
    <poly id="353204050" type="building.yes" color="255,230,230" fill="1" layer="-1.00" shape="10416.054556,641.916968 10423.289341,641.432233 10423.097894,638.611084 10427.451472,638.326736 10427.632396,641.148011 10430.965943,640.931170 10430.275946,630.708606 10415.375205,631.705350 10416.054556,641.916968"/>
    <poly id="353785590" type="building.apartments" color="255,230,230" fill="1" layer="-1.00" shape="10223.244758,979.404825 10232.815881,974.518601 10226.880166,963.018801 10236.252560,958.234599 10231.792716,949.596003 10222.116884,954.527763 10214.931397,940.595884 10205.464823,945.425507 10212.951673,959.918478 10203.317807,964.838676 10207.185208,972.332810 10216.996895,967.321916 10223.244758,979.404825"/>
    <poly id="353785596" type="building.yes" color="255,230,230" fill="1" layer="-1.00" shape="10317.373421,597.994704 10327.867673,599.907012 10326.216937,608.873073 10337.597057,610.940919 10338.437288,606.380206 10365.753963,611.358515 10368.245088,597.842820 10361.020363,596.522675 10361.929777,591.584683 10350.960954,589.589429 10352.938516,578.903277 10342.159487,576.938984 10340.736126,584.673312 10327.657894,582.293518 10326.748489,587.231512 10320.578521,586.109193 10320.094164,588.739091 10319.113319,588.562545 10317.373421,597.994704"/>
    <poly id="354010754" type="building.bungalow" color="255,230,230" fill="1" layer="-1.00" shape="9994.695663,1018.956607 9995.387148,1030.164601 10004.041912,1029.629525 10003.362142,1018.521042 10012.070712,1018.084979 10011.564104,1008.258818 9983.671545,1009.665606 9984.167514,1019.480822 9994.695663,1018.956607"/>
    <poly id="354026114" type="building.yes" color="255,230,230" fill="1" layer="-1.00" shape="10485.084689,895.026656 10501.093136,896.042985 10501.767001,885.460948 10485.769067,884.444492 10485.084689,895.026656"/>
    <poly id="354067601" type="building.yes" color="255,230,230" fill="1" layer="-1.00" shape="10384.305034,774.619745 10397.193009,775.174903 10398.459951,746.349760 10385.571955,745.794599 10384.305034,774.619745"/>
    <poly id="354067609" type="building.yes" color="255,230,230" fill="1" layer="-1.00" shape="10444.026038,652.401580 10459.045409,651.647035 10458.451805,639.795701 10443.432292,640.539175 10444.026038,652.401580"/>
    <poly id="354067613" type="building.yes" color="255,230,230" fill="1" layer="-1.00" shape="10423.032273,682.601999 10437.210781,683.706513 10438.107958,672.435334 10423.929310,671.319747 10423.032273,682.601999"/>
    <poly id="354067615" type="building.yes" color="255,230,230" fill="1" layer="-1.00" shape="10437.684739,779.210282 10449.027085,779.883528 10449.597311,770.321370 10438.254959,769.648123 10437.684739,779.210282"/>
    <poly id="355017976" type="building.yes" color="255,230,230" fill="1" layer="-1.00" shape="10501.717036,670.814567 10518.026991,670.620467 10517.820417,653.261614 10501.510447,653.455712 10501.717036,670.814567"/>
    <poly id="355057949" type="building.yes" color="255,230,230" fill="1" layer="-1.00" shape="10175.349885,581.151844 10178.555853,587.889874 10195.635488,579.858218 10192.429526,573.120186 10175.349885,581.151844"/>
    <poly id="355057953" type="building.yes" color="255,230,230" fill="1" layer="-1.00" shape="10465.226491,855.281076 10477.830427,855.850738 10478.330126,844.783592 10465.726182,844.213929 10465.226491,855.281076"/>
    <poly id="355057956" type="building.office" color="255,230,230" fill="1" layer="-1.00" shape="10391.828457,975.126579 10403.054771,969.600690 10393.103058,949.600874 10381.876733,955.126768 10391.828457,975.126579"/>
    <poly id="355057959" type="building.yes" color="255,230,230" fill="1" layer="-1.00" shape="10430.795801,832.605290 10447.604018,833.612057 10448.597866,817.202191 10431.789634,816.195422 10430.795801,832.605290"/>
    <poly id="355057960" type="building.yes" color="255,230,230" fill="1" layer="-1.00" shape="10411.342710,814.523367 10427.743974,814.937061 10428.022543,803.861471 10411.621401,803.458847 10411.342710,814.523367"/>
    <poly id="483432031" type="landuse.military" color="153,153,92" fill="1" layer="-3.00" shape="10681.781999,1349.383826 10629.982016,1360.662674 10589.186129,1243.405628 10576.548416,1196.642822 10557.184065,1125.844672 10549.182303,1069.825648 10550.405339,1054.099545 10542.228980,1055.038345 10539.388379,1101.088499 10537.736542,1121.458989 10533.476797,1173.826162 10531.601517,1277.097406 10529.659691,1421.624745 10536.528908,1477.092567 10525.662218,1584.401546 10517.008209,1639.777379 10511.708996,1692.311995 10501.792305,1736.198789 10497.551963,1736.249282 10493.619449,1855.821370 10492.900624,1890.895844 10507.655347,1921.024967 10516.479396,1974.509724 10519.566845,2019.924669 10511.501034,2053.968336 10508.971823,2102.262534 10627.799787,2102.242855 10712.267516,2108.257454 10762.775555,2107.091874 10876.535298,2125.126506 10902.242087,2097.572059 10918.349347,2111.420203 10904.453080,2129.533523 10994.797689,2120.055885 11120.835251,2100.688004 11207.750124,2083.291235 11256.791839,2065.868247 11269.482368,2052.530607 11282.259238,2035.825995 11300.513838,2003.632782 11350.866810,1965.434099 11384.626044,1956.618763 11405.063314,1966.474235 11498.347200,1930.579241 11429.921500,1777.641707 11477.106893,1758.004849 11092.218203,1006.692273 11075.316469,961.441412 11071.966420,917.712654 11068.746382,721.816699 11067.991689,706.114165 11059.782954,680.402243 11050.023727,665.924898 11038.646446,658.763365 11014.344289,656.804230 10977.839219,664.124627 10868.470925,686.040238 10808.863377,701.131397 10771.769870,715.600815 10747.183643,736.664623 10718.967721,785.252958 10652.102647,1002.377896 10619.882112,1033.630654 10681.781999,1349.383826"/>
    <poly id="52511372" type="building.apartments" color="255,230,230" fill="1" layer="-1.00" shape="9982.228479,602.011716 9973.719865,598.935467 9970.132519,608.755104 9960.017468,605.111193 9956.450648,614.886299 9966.798249,618.616012 9963.312836,628.157628 9971.831961,631.233746 9975.245832,621.870142 9985.086094,625.417688 9988.653059,615.653658 9978.569716,612.020432 9982.228479,602.011716"/>
    <poly id="52511373" type="building.apartments" color="255,230,230" fill="1" layer="-1.00" shape="10035.298527,613.226081 10026.789931,610.149808 10023.202560,619.969432 10013.087529,616.325494 10009.520552,626.089517 10019.878656,629.819132 10016.393351,639.371806 10024.912460,642.447948 10028.326354,633.084356 10038.155942,636.620983 10041.722931,626.856967 10031.650262,623.234658 10035.298527,613.226081"/>
    <poly id="52511384" type="building.dormitory" color="255,230,230" fill="1" layer="-1.00" shape="10119.565622,1098.737888 10070.426028,1101.062270 10066.089417,988.054742 10112.626626,986.337173 10119.565622,1098.737888"/>
    <poly id="52511399" type="building.school" color="255,230,230" fill="1" layer="-1.00" shape="10323.397095,889.887882 10330.844544,904.613880 10355.282923,892.397946 10364.950440,911.504279 10351.936103,918.003700 10348.487306,911.191038 10339.668068,915.592130 10344.916836,925.970770 10335.783911,930.541685 10333.606690,926.227286 10327.319248,929.369203 10329.442540,933.573522 10322.056710,937.271067 10318.672490,930.579435 10321.591231,929.116341 10320.006850,925.979615 10314.273932,928.849197 10315.211671,930.709241 10294.738277,940.940348 10290.136127,931.838400 10313.643491,920.098532 10303.415302,899.869527 10323.397095,889.887882"/>
    <poly id="52511400" type="building.apartments" color="255,230,230" fill="1" layer="-1.00" shape="10240.424654,1022.204845 10255.453362,1022.258265 10255.363173,1027.053640 10264.551042,1027.099166 10264.704660,1008.196943 10270.231016,1008.308248 10270.257059,1000.778783 10247.818075,1000.603282 10247.799741,995.532393 10240.485235,995.497766 10240.445572,1015.129404 10235.089158,1015.148950 10235.068243,1022.224392 10240.424654,1022.204845"/>
    <poly id="617989951" type="amenity.university" color="237,199,199" fill="0" layer="-1.00" shape="10456.502056,2176.385329 10458.520133,2144.384525 10465.136021,2118.496218 10461.784381,2074.767398 10430.277279,2083.557670 10423.374229,1977.578472 10459.415221,1733.614280 10486.143069,1370.235996 10500.136686,1265.691066 10507.977148,1046.466405 10495.183122,1038.757385 10465.233128,996.397098 10414.202396,922.997605 10170.565220,646.812175 10157.119947,635.711916 10147.011281,625.535181 9861.542275,547.713773 9673.784309,496.919242 9645.241416,494.171033 9429.380788,525.096282 9403.427915,525.960275 9372.552150,517.349905 9333.313395,494.102345"/>
    <poly id="622286336" type="building.apartments" color="255,230,230" fill="1" layer="-1.00" shape="9975.203202,833.539850 9983.328016,833.564712 9983.396755,808.451910 9975.282584,808.437992 9975.203202,833.539850"/>
    <poly id="622286712" type="building.bungalow" color="255,230,230" fill="1" layer="-1.00" shape="9995.455326,675.075057 9991.250721,663.144984 10005.525171,658.169334 10009.729768,670.099409 9995.455326,675.075057"/>
    <poly id="622286713" type="building.bungalow" color="255,230,230" fill="1" layer="-1.00" shape="10005.083681,701.445147 9999.779331,686.427947 10013.990761,681.464126 10019.295100,696.481329 10005.083681,701.445147"/>
    <poly id="622286714" type="building.bungalow" color="255,230,230" fill="1" layer="-1.00" shape="10011.207949,732.263811 10006.489175,716.929601 10022.710918,711.986094 10027.429679,727.320307 10011.207949,732.263811"/>
    <poly id="622286715" type="building.bungalow" color="255,230,230" fill="1" layer="-1.00" shape="10015.400867,759.097341 10010.873794,744.834857 10024.021783,740.714147 10028.538324,754.976758 10015.400867,759.097341"/>
    <poly id="622291397" type="building.bungalow" color="255,230,230" fill="0" layer="-1.00" shape="10016.725992,926.649733 10019.980410,931.272350 10002.915307,943.135061 9999.705354,938.711217"/>
    <poly id="622291398" type="building.bungalow" color="255,230,230" fill="1" layer="-1.00" shape="9993.712284,930.356693 10013.247968,916.515778 10019.241033,924.870308 10016.725992,926.649733 9999.705354,938.711217 9993.712284,930.356693"/>
    <poly id="622291400" type="building.bungalow" color="255,230,230" fill="1" layer="-1.00" shape="10000.795329,884.521438 10005.609764,890.232673 10011.799485,885.076648 10017.019449,891.259157 10026.095632,883.699233 10016.061237,871.805482 10000.795329,884.521438"/>
    <poly id="622291402" type="building.bungalow" color="255,230,230" fill="1" layer="-1.00" shape="10021.066245,846.733453 10032.361963,834.673850 10042.301143,843.878178 10031.015948,855.937648 10021.066245,846.733453"/>
    <poly id="622291404" type="building.bungalow" color="255,230,230" fill="1" layer="-1.00" shape="10040.519615,810.981482 10032.590208,804.399462 10041.545558,793.762894 10051.707269,802.211658 10042.762441,812.848095 10040.519615,810.981482"/>
    <poly id="622291405" type="building.bungalow" color="255,230,230" fill="1" layer="-1.00" shape="10073.769717,767.259042 10063.589160,758.112935 10053.616923,769.082713 10061.467832,776.141788 10064.199740,773.130760 10066.529388,775.217787 10073.769717,767.259042"/>
    <poly id="622291407" type="building.bungalow" color="255,230,230" fill="1" layer="-1.00" shape="10110.615066,693.177878 10103.376794,685.424995 10101.950646,686.737457 10100.255778,684.930736 10090.429266,694.005386 10097.976654,702.086748 10101.495000,698.833833 10102.880752,700.312071 10110.615066,693.177878"/>
    <poly id="622291409" type="building.bungalow" color="255,230,230" fill="1" layer="-1.00" shape="10112.833038,656.767882 10110.038196,658.916011 10108.028801,656.326907 10105.765727,658.059021 10100.122688,650.818588 10097.035853,653.191646 10094.363892,649.757876 10104.594288,641.896368 10106.870841,644.825528 10109.884547,642.497633 10117.932650,652.853927 10112.833038,656.767882"/>
    <poly id="622297224" type="building.bungalow" color="255,230,230" fill="1" layer="-1.00" shape="10093.332679,727.442312 10083.152113,718.296194 10073.179842,729.265957 10081.030758,736.325041 10083.762675,733.314017 10086.092324,735.401047 10093.332679,727.442312"/>
    <poly id="622413778" type="building.apartments" color="255,230,230" fill="1" layer="-1.00" shape="10061.655169,942.744419 10082.370897,953.724670 10089.392191,940.642062 10068.665932,929.661927 10061.655169,942.744419"/>
    <poly id="622413779" type="building.apartments" color="255,230,230" fill="1" layer="-1.00" shape="10082.720327,896.543160 10105.087615,895.988559 10104.697295,879.141179 10082.800065,879.402294 10082.720327,896.543160"/>
    <poly id="622413781" type="building.apartments" color="255,230,230" fill="1" layer="-1.00" shape="10120.731260,812.560525 10137.503143,827.286016 10147.514048,816.027945 10130.742164,801.302444 10120.731260,812.560525"/>
    <poly id="622413782" type="building.apartments" color="255,230,230" fill="1" layer="-1.00" shape="10148.923924,766.562285 10166.823413,763.758001 10163.875724,745.136329 10145.976084,747.929544 10148.923924,766.562285"/>
    <poly id="622413786" type="building.apartments" color="255,230,230" fill="1" layer="-1.00" shape="10128.904033,931.357372 10140.076648,941.632121 10149.147760,931.880007 10137.975146,921.605252 10128.904033,931.357372"/>
    <poly id="622413787" type="building.apartments" color="255,230,230" fill="1" layer="-1.00" shape="10159.167166,881.614149 10176.356440,869.561893 10167.857501,857.572261 10150.657696,869.624650 10159.167166,881.614149"/>
    <poly id="622413789" type="building.apartments" color="255,230,230" fill="1" layer="-1.00" shape="10178.222358,812.439853 10192.535950,822.234306 10202.219668,808.245314 10187.895682,798.462048 10178.222358,812.439853"/>
    <poly id="622413791" type="building.apartments" color="255,230,230" fill="1" layer="-1.00" shape="10197.903202,755.127633 10210.960650,767.251183 10223.390033,754.048835 10210.332454,741.914205 10197.903202,755.127633"/>
    <poly id="622415799" type="building.apartments" color="255,230,230" fill="1" layer="-1.00" shape="10191.117988,694.432715 10184.236468,700.715212 10169.832463,685.108881 10176.703462,678.826504 10191.117988,694.432715"/>
    <poly id="622525941" type="building.apartments" color="255,230,230" fill="1" layer="-1.00" shape="10229.401483,778.081564 10230.737471,763.904191 10252.504289,765.936784 10251.168153,780.103083 10229.401483,778.081564"/>
    <poly id="622525943" type="building.apartments" color="255,230,230" fill="1" layer="-1.00" shape="10242.740711,811.205900 10253.586046,816.978197 10263.377787,798.802631 10252.542968,793.030202 10242.740711,811.205900"/>
    <poly id="622525945" type="building.apartments" color="255,230,230" fill="1" layer="-1.00" shape="10258.996487,764.076791 10272.298439,785.243521 10281.042330,779.813578 10267.750908,758.646717 10258.996487,764.076791"/>
    <poly id="622525946" type="building.apartments" color="255,230,230" fill="1" layer="-1.00" shape="10302.956012,810.078795 10303.219592,805.702104 10303.473442,801.391963 10277.502694,799.830147 10276.974884,808.528177 10302.956012,810.078795"/>
    <poly id="622525949" type="building.apartments" color="255,230,230" fill="1" layer="-1.00" shape="10331.748725,867.433465 10332.100493,856.323778 10355.103660,857.024152 10354.741382,869.019744 10331.727707,868.319498 10331.748725,867.433465"/>
    <poly id="622525951" type="building.apartments" color="255,230,230" fill="1" layer="-1.00" shape="10360.369325,882.959146 10374.455255,903.695846 10382.572643,898.683083 10368.921567,878.229078 10360.369325,882.959146"/>
    <poly id="622525953" type="building.apartments" color="255,230,230" fill="1" layer="-1.00" shape="10381.319402,926.002243 10403.672301,926.012858 10403.679876,914.276156 10381.326963,914.265540 10381.319402,926.002243"/>
    <poly id="622528572" type="building.apartments" color="255,230,230" fill="1" layer="-1.00" shape="10238.655902,893.211635 10239.636251,883.633497 10261.584051,885.852157 10260.593169,895.430418 10238.655902,893.211635"/>
    <poly id="622528574" type="building.apartments" color="255,230,230" fill="1" layer="-1.00" shape="10234.828541,865.233288 10226.007178,847.379164 10233.872743,844.196262 10241.424808,861.511901 10234.828541,865.233288"/>
    <poly id="622533040" type="building.apartments" color="255,230,230" fill="1" layer="-1.00" shape="10319.203769,843.544978 10328.001045,838.180854 10316.475595,819.484195 10307.678312,824.848324 10319.203769,843.544978"/>
    <poly id="622533042" type="building.apartments" color="255,230,230" fill="1" layer="-1.00" shape="10312.387500,882.689183 10319.633020,875.162298 10301.111229,857.523353 10292.431020,866.528879 10310.963334,884.167690 10312.387500,882.689183"/>
    <poly id="622533045" type="building.apartments" color="255,230,230" fill="1" layer="-1.00" shape="10213.198326,894.079711 10203.500656,885.702847 10216.509669,870.810587 10226.207339,879.187458 10213.198326,894.079711"/>
    <poly id="622540260" type="building.apartments" color="255,230,230" fill="1" layer="-1.00" shape="10335.280614,1000.491277 10354.855308,993.448659 10350.927634,982.655680 10331.353060,989.709372 10335.280614,1000.491277"/>
    <poly id="622540261" type="building.apartments" color="255,230,230" fill="1" layer="-1.00" shape="10364.874113,990.804847 10359.786635,980.712162 10375.029538,973.123260 10380.117008,983.215949 10364.874113,990.804847"/>
    <poly id="622540262" type="building.apartments" color="255,230,230" fill="1" layer="-1.00" shape="10358.252001,956.127836 10365.326350,951.902545 10373.538952,965.490069 10366.464607,969.715357 10358.252001,956.127836"/>
    <poly id="622540263" type="building.apartments" color="255,230,230" fill="1" layer="-1.00" shape="10328.943052,981.754966 10317.658682,960.320589 10327.155519,955.379942 10338.439880,976.814324 10328.943052,981.754966"/>
    <poly id="622791282" type="leisure.playground" color="207,245,201" fill="1" layer="-2.00" shape="10247.378764,848.929269 10257.533248,857.666099 10266.826433,865.660280 10279.793551,850.779644 10284.932660,844.883323 10265.484858,828.141222 10247.378764,848.929269"/>
    <poly id="723512525" type="amenity.school" color="237,199,199" fill="1" layer="-1.00" shape="10425.181461,1110.586232 10429.926110,1106.034389 10433.220972,1003.587682 10429.749197,996.609198 10410.159156,986.456672 10399.142731,985.746366 10388.724202,988.405991 10366.046683,1003.546147 10348.571324,1005.714089 10299.733707,1006.019075 10289.124980,1015.678709 10241.905896,1103.225269 10247.619348,1109.324443 10425.181461,1110.586232"/>