<?xml version="1.0" encoding="UTF-8"?>

<!-- generated on 2021-12-06 00:47:05 by Eclipse SUMO netconvert Version 1.9.2
<configuration xmlns:xsi="http://www.w3.org/2001/XMLSchema-instance" xsi:noNamespaceSchemaLocation="http://sumo.dlr.de/xsd/netconvertConfiguration.xsd">

    <input>
        <type-files value="C:\Program%20Files%20(x86)\Eclipse\Sumo\data\typemap\osmNetconvert.typ.xml"/>
        <osm-files value="osm_bbox.osm.xml"/>
    </input>

    <output>
        <output-file value="osm.net.xml"/>
        <output.street-names value="true"/>
        <output.original-names value="true"/>
    </output>

    <projection>
        <proj.utm value="true"/>
    </projection>

    <processing>
        <geometry.remove value="true"/>
        <roundabouts.guess value="true"/>
        <lefthand value="true"/>
    </processing>

    <tls_building>
        <tls.discard-simple value="true"/>
        <tls.join value="true"/>
        <tls.guess-signals value="true"/>
        <tls.default-type value="actuated"/>
    </tls_building>

    <ramp_guessing>
        <ramps.guess value="true"/>
    </ramp_guessing>

    <edge_removal>
        <keep-edges.by-vclass value="passenger"/>
    </edge_removal>

    <junctions>
        <junctions.join value="true"/>
        <junctions.corner-detail value="5"/>
    </junctions>

    <report>
        <verbose value="true"/>
        <aggregate-warnings value="5"/>
    </report>

</configuration>
-->

<net version="1.9" junctionCornerDetail="5" lefthand="true" limitTurnSpeed="5.50" xmlns:xsi="http://www.w3.org/2001/XMLSchema-instance" xsi:noNamespaceSchemaLocation="http://sumo.dlr.de/xsd/net_file.xsd">

    <location netOffset="-279383.83,-2115360.89" convBoundary="0.00,-0.00,2372.04,1787.26" origBoundary="72.819690,19.119326,72.941679,19.143641" projParameter="+proj=utm +zone=43 +ellps=WGS84 +datum=WGS84 +units=m +no_defs"/>

    <type id="highway.bridleway" priority="1" numLanes="1" speed="2.78" allow="pedestrian" oneway="1" width="2.00"/>
    <type id="highway.bus_guideway" priority="1" numLanes="1" speed="27.78" allow="bus" oneway="1"/>
    <type id="highway.cycleway" priority="1" numLanes="1" speed="8.33" allow="bicycle" oneway="0" width="1.00"/>
    <type id="highway.footway" priority="1" numLanes="1" speed="2.78" allow="pedestrian" oneway="1" width="2.00"/>
    <type id="highway.ford" priority="1" numLanes="1" speed="2.78" allow="army" oneway="0"/>
    <type id="highway.living_street" priority="2" numLanes="1" speed="2.78" disallow="tram rail_urban rail rail_electric rail_fast ship" oneway="0"/>
    <type id="highway.motorway" priority="14" numLanes="2" speed="39.44" allow="private emergency authority army vip passenger hov taxi bus coach delivery truck trailer motorcycle evehicle custom1 custom2" oneway="1"/>
    <type id="highway.motorway_link" priority="9" numLanes="1" speed="22.22" allow="private emergency authority army vip passenger hov taxi bus coach delivery truck trailer motorcycle evehicle custom1 custom2" oneway="1"/>
    <type id="highway.path" priority="1" numLanes="1" speed="2.78" allow="pedestrian bicycle" oneway="0" width="2.00"/>
    <type id="highway.pedestrian" priority="1" numLanes="1" speed="2.78" allow="pedestrian" oneway="1" width="2.00"/>
    <type id="highway.primary" priority="12" numLanes="2" speed="27.78" disallow="tram rail_urban rail rail_electric rail_fast ship" oneway="0"/>
    <type id="highway.primary_link" priority="7" numLanes="1" speed="22.22" disallow="tram rail_urban rail rail_electric rail_fast ship" oneway="0"/>
    <type id="highway.raceway" priority="15" numLanes="2" speed="83.33" allow="vip" oneway="0"/>
    <type id="highway.residential" priority="3" numLanes="1" speed="13.89" disallow="tram rail_urban rail rail_electric rail_fast ship" oneway="0"/>
    <type id="highway.secondary" priority="11" numLanes="1" speed="27.78" disallow="tram rail_urban rail rail_electric rail_fast ship" oneway="0"/>
    <type id="highway.secondary_link" priority="6" numLanes="1" speed="22.22" disallow="tram rail_urban rail rail_electric rail_fast ship" oneway="0"/>
    <type id="highway.service" priority="1" numLanes="1" speed="5.56" allow="pedestrian delivery bicycle" oneway="0"/>
    <type id="highway.stairs" priority="1" numLanes="1" speed="1.39" allow="pedestrian" oneway="1" width="2.00"/>
    <type id="highway.step" priority="1" numLanes="1" speed="1.39" allow="pedestrian" oneway="1" width="2.00"/>
    <type id="highway.steps" priority="1" numLanes="1" speed="1.39" allow="pedestrian" oneway="1" width="2.00"/>
    <type id="highway.tertiary" priority="10" numLanes="1" speed="22.22" disallow="tram rail_urban rail rail_electric rail_fast ship" oneway="0"/>
    <type id="highway.tertiary_link" priority="5" numLanes="1" speed="22.22" disallow="tram rail_urban rail rail_electric rail_fast ship" oneway="0"/>
    <type id="highway.track" priority="1" numLanes="1" speed="5.56" allow="pedestrian motorcycle moped bicycle" oneway="0"/>
    <type id="highway.trunk" priority="13" numLanes="2" speed="27.78" disallow="pedestrian bicycle tram rail_urban rail rail_electric rail_fast ship" oneway="0"/>
    <type id="highway.trunk_link" priority="8" numLanes="1" speed="22.22" disallow="pedestrian bicycle tram rail_urban rail rail_electric rail_fast ship" oneway="0"/>
    <type id="highway.unclassified" priority="4" numLanes="1" speed="13.89" disallow="tram rail_urban rail rail_electric rail_fast ship" oneway="0"/>
    <type id="highway.unsurfaced" priority="1" numLanes="1" speed="8.33" disallow="tram rail_urban rail rail_electric rail_fast ship" oneway="0"/>
    <type id="railway.highspeed" priority="21" numLanes="1" speed="69.44" allow="rail_fast" oneway="1"/>
    <type id="railway.light_rail" priority="19" numLanes="1" speed="27.78" allow="rail_urban" oneway="1"/>
    <type id="railway.preserved" priority="16" numLanes="1" speed="27.78" allow="rail" oneway="1"/>
    <type id="railway.rail" priority="20" numLanes="1" speed="44.44" allow="rail" oneway="1"/>
    <type id="railway.subway" priority="18" numLanes="1" speed="27.78" allow="rail_urban" oneway="1"/>
    <type id="railway.tram" priority="17" numLanes="1" speed="13.89" allow="tram" oneway="1"/>

    <edge id=":1209663102_0" function="internal">
        <lane id=":1209663102_0_0" index="0" disallow="tram rail_urban rail rail_electric rail_fast ship" speed="5.51" length="8.44" shape="1586.85,712.42 1586.44,715.14 1585.46,716.70 1583.91,717.10 1581.81,716.32"/>
    </edge>
    <edge id=":1209663102_1" function="internal">
        <lane id=":1209663102_1_0" index="0" disallow="tram rail_urban rail rail_electric rail_fast ship" speed="3.65" length="4.67" shape="1586.85,712.42 1587.60,713.65 1588.39,714.08 1589.20,713.71 1590.05,712.54"/>
    </edge>
    <edge id=":1209663102_2" function="internal">
        <lane id=":1209663102_2_0" index="0" disallow="tram rail_urban rail rail_electric rail_fast ship" speed="12.10" length="13.22" shape="1592.80,725.08 1590.93,722.26 1590.09,719.29 1589.92,716.09 1590.05,712.54"/>
    </edge>
    <edge id=":1209663102_3" function="internal">
        <lane id=":1209663102_3_0" index="0" disallow="tram rail_urban rail rail_electric rail_fast ship" speed="22.22" length="14.12" shape="1592.80,725.08 1590.28,722.49 1587.68,720.23 1584.89,718.21 1581.81,716.32"/>
    </edge>
    <edge id=":1879817526_0" function="internal">
        <lane id=":1879817526_0_0" index="0" disallow="tram rail_urban rail rail_electric rail_fast ship" speed="6.64" length="9.52" shape="1414.04,564.70 1412.96,567.12 1411.39,568.60 1409.33,569.16 1406.78,568.79"/>
    </edge>
    <edge id=":1879817526_1" function="internal">
        <lane id=":1879817526_1_0" index="0" disallow="tram rail_urban rail rail_electric rail_fast ship" speed="3.65" length="4.68" shape="1414.04,564.70 1414.39,566.10 1415.01,566.75 1415.90,566.64 1417.06,565.77"/>
    </edge>
    <edge id=":1879817526_2" function="internal">
        <lane id=":1879817526_2_0" index="0" disallow="tram rail_urban rail rail_electric rail_fast ship" speed="6.39" length="8.94" shape="1420.76,572.60 1418.54,571.68 1417.18,570.24 1416.69,568.27 1417.06,565.77"/>
    </edge>
    <edge id=":1879817526_3" function="internal">
        <lane id=":1879817526_3_0" index="0" disallow="tram rail_urban rail rail_electric rail_fast ship" speed="13.89" length="14.50" shape="1420.76,572.60 1406.78,568.79"/>
    </edge>
    <edge id=":1879817556_0" function="internal">
        <lane id=":1879817556_0_0" index="0" disallow="tram rail_urban rail rail_electric rail_fast ship" speed="13.89" length="16.31" shape="1457.37,603.96 1455.60,607.49 1453.94,611.35 1452.43,615.27 1451.09,619.00"/>
    </edge>
    <edge id=":1879817556_1" function="internal">
        <lane id=":1879817556_1_0" index="0" disallow="tram rail_urban rail rail_electric rail_fast ship" speed="6.98" length="1.09" shape="1457.37,603.96 1457.31,605.04"/>
    </edge>
    <edge id=":1879817556_2" function="internal">
        <lane id=":1879817556_2_0" index="0" disallow="tram rail_urban rail rail_electric rail_fast ship" speed="3.65" length="2.34" shape="1457.37,603.96 1457.49,605.40 1457.99,606.13"/>
    </edge>
    <edge id=":1879817556_11" function="internal">
        <lane id=":1879817556_11_0" index="0" disallow="tram rail_urban rail rail_electric rail_fast ship" speed="6.98" length="7.74" shape="1457.31,605.04 1458.12,606.56 1459.79,608.50 1462.31,610.87"/>
    </edge>
    <edge id=":1879817556_12" function="internal">
        <lane id=":1879817556_12_0" index="0" disallow="tram rail_urban rail rail_electric rail_fast ship" speed="3.65" length="2.34" shape="1457.99,606.13 1458.89,606.17 1460.17,605.50"/>
    </edge>
    <edge id=":1879817556_3" function="internal">
        <lane id=":1879817556_3_0" index="0" disallow="tram rail_urban rail rail_electric rail_fast ship" speed="5.14" length="6.77" shape="1454.11,620.05 1455.15,617.52 1456.16,615.95 1457.14,615.34 1458.10,615.69"/>
    </edge>
    <edge id=":1879817556_4" function="internal">
        <lane id=":1879817556_4_0" index="0" disallow="tram rail_urban rail rail_electric rail_fast ship" speed="13.89" length="15.77" shape="1454.11,620.05 1455.42,616.40 1456.85,612.65 1458.43,608.96 1460.17,605.50"/>
    </edge>
    <edge id=":1879817556_5" function="internal">
        <lane id=":1879817556_5_0" index="0" disallow="tram rail_urban rail rail_electric rail_fast ship" speed="3.65" length="2.34" shape="1454.11,620.05 1453.75,618.66 1453.13,618.01"/>
    </edge>
    <edge id=":1879817556_13" function="internal">
        <lane id=":1879817556_13_0" index="0" disallow="tram rail_urban rail rail_electric rail_fast ship" speed="3.65" length="2.34" shape="1453.13,618.01 1452.24,618.13 1451.09,619.00"/>
    </edge>
    <edge id=":1879817556_6" function="internal">
        <lane id=":1879817556_6_0" index="0" disallow="tram rail_urban rail rail_electric rail_fast ship" speed="7.24" length="10.66" shape="1448.53,609.78 1450.56,611.19 1451.67,613.20 1451.85,615.80 1451.09,619.00"/>
    </edge>
    <edge id=":1879817556_7" function="internal">
        <lane id=":1879817556_7_0" index="0" disallow="tram rail_urban rail rail_electric rail_fast ship" speed="27.78" length="12.28" shape="1448.53,609.78 1451.59,611.15 1453.65,612.21 1455.54,613.53 1458.10,615.69"/>
        <lane id=":1879817556_7_1" index="1" disallow="tram rail_urban rail rail_electric rail_fast ship" speed="27.78" length="12.28" shape="1449.84,606.86 1453.16,608.35 1455.39,609.50 1457.43,610.93 1460.21,613.28"/>
        <lane id=":1879817556_7_2" index="2" disallow="tram rail_urban rail rail_electric rail_fast ship" speed="27.78" length="12.28" shape="1451.15,603.94 1454.73,605.55 1457.12,606.79 1459.32,608.34 1462.31,610.87"/>
    </edge>
    <edge id=":1879817556_10" function="internal">
        <lane id=":1879817556_10_0" index="0" disallow="tram rail_urban rail rail_electric rail_fast ship" speed="6.89" length="9.59" shape="1451.15,603.94 1454.68,605.37 1457.36,606.11 1459.19,606.15 1460.17,605.50"/>
    </edge>
    <edge id=":1879817582_0" function="internal">
        <lane id=":1879817582_0_0" index="0" disallow="tram rail_urban rail rail_electric rail_fast ship" speed="5.81" length="9.14" shape="1467.76,632.86 1469.23,630.61 1470.88,629.70 1472.73,630.12 1474.76,631.87"/>
    </edge>
    <edge id=":1879817582_1" function="internal">
        <lane id=":1879817582_1_0" index="0" disallow="tram rail_urban rail rail_electric rail_fast ship" speed="13.89" length="23.65" shape="1467.76,632.86 1468.98,627.96 1469.48,621.24 1469.30,614.48 1468.50,609.44"/>
    </edge>
    <edge id=":1879817582_2" function="internal">
        <lane id=":1879817582_2_0" index="0" disallow="tram rail_urban rail rail_electric rail_fast ship" speed="3.65" length="4.67" shape="1467.76,632.86 1467.55,631.43 1467.00,630.72 1466.10,630.74 1464.87,631.49"/>
    </edge>
    <edge id=":1879817582_3" function="internal">
        <lane id=":1879817582_3_0" index="0" disallow="tram rail_urban rail rail_electric rail_fast ship" speed="10.08" length="18.24" shape="1458.25,615.82 1462.38,620.05 1464.86,624.08 1465.69,627.89 1464.87,631.49"/>
    </edge>
    <edge id=":1879817582_4" function="internal">
        <lane id=":1879817582_4_0" index="0" disallow="tram rail_urban rail rail_electric rail_fast ship" speed="27.78" length="23.47" shape="1458.25,615.82 1463.41,620.31 1466.90,623.45 1470.19,626.78 1474.76,631.87"/>
        <lane id=":1879817582_4_1" index="1" disallow="tram rail_urban rail rail_electric rail_fast ship" speed="27.78" length="23.47" shape="1460.36,613.41 1465.61,617.98 1469.16,621.18 1472.51,624.57 1477.16,629.75"/>
        <lane id=":1879817582_4_2" index="2" disallow="tram rail_urban rail rail_electric rail_fast ship" speed="27.78" length="23.47" shape="1462.46,611.00 1467.81,615.66 1471.42,618.91 1474.82,622.37 1479.56,627.63"/>
    </edge>
    <edge id=":1879817582_7" function="internal">
        <lane id=":1879817582_7_0" index="0" disallow="tram rail_urban rail rail_electric rail_fast ship" speed="5.79" length="12.33" shape="1462.46,611.00 1466.18,613.82 1468.42,614.50 1469.19,613.04 1468.50,609.44"/>
    </edge>
    <edge id=":1879817582_8" function="internal">
        <lane id=":1879817582_8_0" index="0" disallow="tram rail_urban rail rail_electric rail_fast ship" speed="13.89" length="21.36" shape="1465.44,610.37 1466.27,615.05 1466.50,621.03 1466.06,626.95 1464.87,631.49"/>
    </edge>
    <edge id=":1879817582_9" function="internal">
        <lane id=":1879817582_9_0" index="0" disallow="tram rail_urban rail rail_electric rail_fast ship" speed="20.84" length="22.42" shape="1465.44,610.37 1467.23,613.91 1470.28,617.66 1474.45,622.08 1479.56,627.63"/>
    </edge>
    <edge id=":1879817582_10" function="internal">
        <lane id=":1879817582_10_0" index="0" disallow="tram rail_urban rail rail_electric rail_fast ship" speed="3.65" length="4.67" shape="1465.44,610.37 1466.56,611.29 1467.44,611.43 1468.09,610.82 1468.50,609.44"/>
    </edge>
    <edge id=":1879817626_0" function="internal">
        <lane id=":1879817626_0_0" index="0" disallow="tram rail_urban rail rail_electric rail_fast ship" speed="20.84" length="3.16" shape="1559.72,691.67 1559.11,690.96 1558.70,690.47 1558.31,689.96 1557.76,689.20"/>
    </edge>
    <edge id=":1879817626_1" function="internal">
        <lane id=":1879817626_1_0" index="0" disallow="tram rail_urban rail rail_electric rail_fast ship" speed="27.78" length="3.16" shape="1557.32,693.78 1555.24,691.41"/>
        <lane id=":1879817626_1_1" index="1" disallow="tram rail_urban rail rail_electric rail_fast ship" speed="27.78" length="3.16" shape="1554.92,695.90 1552.84,693.53"/>
        <lane id=":1879817626_1_2" index="2" disallow="tram rail_urban rail rail_electric rail_fast ship" speed="27.78" length="3.16" shape="1552.52,698.01 1550.43,695.64"/>
    </edge>
    <edge id=":1879817632_0" function="internal">
        <lane id=":1879817632_0_0" index="0" disallow="tram rail_urban rail rail_electric rail_fast ship" speed="25.00" length="19.40" shape="1581.63,716.22 1578.69,713.97 1575.97,710.87 1572.88,706.90 1568.82,701.99"/>
        <lane id=":1879817632_0_1" index="1" disallow="tram rail_urban rail rail_electric rail_fast ship" speed="25.00" length="19.40" shape="1581.63,716.22 1578.33,714.31 1574.81,711.97 1570.89,708.73 1566.41,704.10"/>
    </edge>
    <edge id=":1879817632_2" function="internal">
        <lane id=":1879817632_2_0" index="0" disallow="tram rail_urban rail rail_electric rail_fast ship" speed="27.78" length="20.34" shape="1579.86,719.36 1566.41,704.10"/>
        <lane id=":1879817632_2_1" index="1" disallow="tram rail_urban rail rail_electric rail_fast ship" speed="27.78" length="20.34" shape="1577.46,721.48 1564.01,706.22"/>
        <lane id=":1879817632_2_2" index="2" disallow="tram rail_urban rail rail_electric rail_fast ship" speed="27.78" length="20.34" shape="1575.06,723.59 1561.61,708.33"/>
    </edge>
    <edge id=":1879817671_0" function="internal">
        <lane id=":1879817671_0_0" index="0" disallow="tram rail_urban rail rail_electric rail_fast ship" speed="20.84" length="14.00" shape="1779.96,956.36 1776.98,954.81 1774.34,953.38 1771.75,951.37 1768.89,948.08"/>
    </edge>
    <edge id=":1879817671_1" function="internal">
        <lane id=":1879817671_1_0" index="0" disallow="tram rail_urban rail rail_electric rail_fast ship" speed="27.78" length="14.00" shape="1776.56,960.00 1768.89,948.08"/>
        <lane id=":1879817671_1_1" index="1" disallow="tram rail_urban rail rail_electric rail_fast ship" speed="27.78" length="14.00" shape="1773.89,961.76 1766.32,949.98"/>
        <lane id=":1879817671_1_2" index="2" disallow="tram rail_urban rail rail_electric rail_fast ship" speed="27.78" length="14.00" shape="1771.21,963.52 1763.75,951.89"/>
    </edge>
    <edge id=":1879817672_0" function="internal">
        <lane id=":1879817672_0_0" index="0" disallow="tram rail_urban rail rail_electric rail_fast ship" speed="7.32" length="12.70" shape="1758.79,945.72 1756.32,947.25 1755.17,949.56 1755.32,952.64 1756.78,956.50"/>
    </edge>
    <edge id=":1879817672_1" function="internal">
        <lane id=":1879817672_1_0" index="0" disallow="tram rail_urban rail rail_electric rail_fast ship" speed="6.84" length="12.36" shape="1758.79,945.72 1756.30,947.25 1755.35,949.44 1755.94,952.30 1758.07,955.83"/>
        <lane id=":1879817672_1_1" index="1" disallow="tram rail_urban rail rail_electric rail_fast ship" speed="6.23" length="10.03" shape="1758.79,945.72 1757.65,946.72 1757.64,948.49 1758.73,951.03 1760.95,954.33"/>
    </edge>
    <edge id=":1879817672_3" function="internal">
        <lane id=":1879817672_3_0" index="0" disallow="tram rail_urban rail rail_electric rail_fast ship" speed="3.65" length="4.67" shape="1758.79,945.72 1757.94,946.88 1757.84,947.77 1758.49,948.38 1759.89,948.72"/>
    </edge>
    <edge id=":1879817672_4" function="internal">
        <lane id=":1879817672_4_0" index="0" disallow="tram rail_urban rail rail_electric rail_fast ship" speed="25.00" length="13.83" shape="1747.17,946.67 1750.10,949.89 1752.69,951.96 1754.92,953.85 1756.78,956.50"/>
    </edge>
    <edge id=":1879817672_5" function="internal">
        <lane id=":1879817672_5_0" index="0" disallow="tram rail_urban rail rail_electric rail_fast ship" speed="27.78" length="13.88" shape="1747.17,946.67 1755.19,957.32"/>
        <lane id=":1879817672_5_1" index="1" disallow="tram rail_urban rail rail_electric rail_fast ship" speed="27.78" length="13.88" shape="1749.72,944.74 1758.07,955.83"/>
        <lane id=":1879817672_5_2" index="2" disallow="tram rail_urban rail rail_electric rail_fast ship" speed="27.78" length="13.88" shape="1752.28,942.82 1760.95,954.33"/>
    </edge>
    <edge id=":1879817672_8" function="internal">
        <lane id=":1879817672_8_0" index="0" disallow="tram rail_urban rail rail_electric rail_fast ship" speed="7.67" length="10.04" shape="1752.28,942.82 1754.68,945.74 1756.75,947.70 1758.49,948.69 1759.89,948.72"/>
    </edge>
    <edge id=":1879817674_0" function="internal">
        <lane id=":1879817674_0_0" index="0" disallow="tram rail_urban rail rail_electric rail_fast ship" speed="22.22" length="3.38" shape="1790.71,959.60 1788.55,957.00"/>
    </edge>
    <edge id=":1879817674_1" function="internal">
        <lane id=":1879817674_1_0" index="0" disallow="tram rail_urban rail rail_electric rail_fast ship" speed="17.26" length="3.51" shape="1788.32,961.73 1787.62,960.96 1787.10,960.47 1786.51,960.07 1785.61,959.55"/>
    </edge>
    <edge id=":1879817701_0" function="internal">
        <lane id=":1879817701_0_0" index="0" disallow="tram rail_urban rail rail_electric rail_fast ship" speed="8.60" length="9.85" shape="1862.48,987.15 1861.36,989.66 1859.87,991.59 1858.01,992.95 1855.79,993.74"/>
    </edge>
    <edge id=":1879817701_1" function="internal">
        <lane id=":1879817701_1_0" index="0" disallow="tram rail_urban rail rail_electric rail_fast ship" speed="3.65" length="4.67" shape="1862.48,987.15 1862.85,988.54 1863.49,989.17 1864.37,989.05 1865.51,988.17"/>
    </edge>
    <edge id=":1879817701_2" function="internal">
        <lane id=":1879817701_2_0" index="0" disallow="tram rail_urban rail rail_electric rail_fast ship" speed="5.53" length="9.48" shape="1870.06,992.56 1867.19,993.25 1865.48,992.75 1864.92,991.06 1865.51,988.17"/>
    </edge>
    <edge id=":1879817701_3" function="internal">
        <lane id=":1879817701_3_0" index="0" disallow="tram rail_urban rail rail_electric rail_fast ship" speed="22.22" length="14.31" shape="1870.06,992.56 1866.94,993.77 1864.12,994.83 1860.86,995.83 1856.45,996.88"/>
    </edge>
    <edge id=":2081722937_0" function="internal">
        <lane id=":2081722937_0_0" index="0" disallow="tram rail_urban rail rail_electric rail_fast ship" speed="3.65" length="4.67" shape="316.32,1786.24 316.17,1787.68 316.54,1788.49 317.41,1788.69 318.79,1788.27"/>
    </edge>
    <edge id=":2246662854_0" function="internal">
        <lane id=":2246662854_0_0" index="0" disallow="tram rail_urban rail rail_electric rail_fast ship" speed="3.65" length="4.67" shape="1344.38,450.60 1343.10,451.27 1342.62,452.02 1342.93,452.86 1344.04,453.78"/>
    </edge>
    <edge id=":245673500_0" function="internal">
        <lane id=":245673500_0_0" index="0" disallow="tram rail_urban rail rail_electric rail_fast ship" speed="5.33" length="6.22" shape="1462.59,591.09 1462.13,591.53 1460.99,591.58 1459.17,591.24 1456.68,590.51"/>
    </edge>
    <edge id=":245673500_1" function="internal">
        <lane id=":245673500_1_0" index="0" disallow="tram rail_urban rail rail_electric rail_fast ship" speed="13.89" length="13.75" shape="1462.59,591.09 1461.71,594.53 1460.56,597.63 1459.14,600.64 1457.46,603.78"/>
    </edge>
    <edge id=":245673500_2" function="internal">
        <lane id=":245673500_2_0" index="0" disallow="tram rail_urban rail rail_electric rail_fast ship" speed="13.89" length="5.65" shape="1462.59,591.09 1462.40,595.47 1462.56,596.73"/>
    </edge>
    <edge id=":245673500_3" function="internal">
        <lane id=":245673500_3_0" index="0" disallow="tram rail_urban rail rail_electric rail_fast ship" speed="3.65" length="2.34" shape="1462.59,591.09 1463.14,592.43 1463.84,592.98"/>
    </edge>
    <edge id=":245673500_18" function="internal">
        <lane id=":245673500_18_0" index="0" disallow="tram rail_urban rail rail_electric rail_fast ship" speed="13.89" length="13.77" shape="1462.56,596.73 1463.07,600.68 1464.19,605.87 1465.38,610.18"/>
    </edge>
    <edge id=":245673500_19" function="internal">
        <lane id=":245673500_19_0" index="0" disallow="tram rail_urban rail rail_electric rail_fast ship" speed="3.65" length="2.34" shape="1463.84,592.98 1464.71,592.74 1465.73,591.72"/>
    </edge>
    <edge id=":245673500_4" function="internal">
        <lane id=":245673500_4_0" index="0" disallow="tram rail_urban rail rail_electric rail_fast ship" speed="11.91" length="19.71" shape="1478.54,606.35 1472.72,601.03 1468.64,596.82 1466.31,593.72 1465.73,591.72"/>
    </edge>
    <edge id=":245673500_5" function="internal">
        <lane id=":245673500_5_0" index="0" disallow="tram rail_urban rail rail_electric rail_fast ship" speed="27.78" length="26.52" shape="1478.54,606.35 1472.65,600.71 1468.62,596.66 1464.09,593.50 1456.68,590.51"/>
        <lane id=":245673500_5_1" index="1" disallow="tram rail_urban rail rail_electric rail_fast ship" speed="27.78" length="26.52" shape="1476.43,608.75 1470.73,603.29 1466.82,599.37 1462.43,596.31 1455.26,593.41"/>
        <lane id=":245673500_5_2" index="2" disallow="tram rail_urban rail rail_electric rail_fast ship" speed="27.78" length="26.52" shape="1474.32,611.16 1468.80,605.88 1465.03,602.08 1460.78,599.12 1453.85,596.32"/>
    </edge>
    <edge id=":245673500_8" function="internal">
        <lane id=":245673500_8_0" index="0" disallow="tram rail_urban rail rail_electric rail_fast ship" speed="8.74" length="19.98" shape="1474.32,611.16 1467.98,606.06 1463.05,603.13 1459.55,602.37 1457.46,603.78"/>
    </edge>
    <edge id=":245673500_9" function="internal">
        <lane id=":245673500_9_0" index="0" disallow="tram rail_urban rail rail_electric rail_fast ship" speed="6.31" length="14.97" shape="1474.32,611.16 1469.34,607.22 1466.19,605.74 1464.87,606.73 1465.38,610.18"/>
    </edge>
    <edge id=":245673500_10" function="internal">
        <lane id=":245673500_10_0" index="0" disallow="tram rail_urban rail rail_electric rail_fast ship" speed="13.89" length="17.86" shape="1468.44,609.25 1467.26,605.18 1466.16,600.53 1465.53,595.86 1465.73,591.72"/>
    </edge>
    <edge id=":245673500_11" function="internal">
        <lane id=":245673500_11_0" index="0" disallow="tram rail_urban rail rail_electric rail_fast ship" speed="13.16" length="9.50" shape="1468.44,609.25 1466.15,603.45 1464.37,600.71"/>
    </edge>
    <edge id=":245673500_12" function="internal">
        <lane id=":245673500_12_0" index="0" disallow="tram rail_urban rail rail_electric rail_fast ship" speed="7.32" length="9.40" shape="1468.44,609.25 1465.88,602.78 1464.27,600.94"/>
    </edge>
    <edge id=":245673500_13" function="internal">
        <lane id=":245673500_13_0" index="0" disallow="tram rail_urban rail rail_electric rail_fast ship" speed="3.65" length="2.34" shape="1468.44,609.25 1467.33,608.33 1466.44,608.18"/>
    </edge>
    <edge id=":245673500_20" function="internal">
        <lane id=":245673500_20_0" index="0" disallow="tram rail_urban rail rail_electric rail_fast ship" speed="13.16" length="11.91" shape="1464.37,600.71 1463.19,598.88 1459.56,595.54 1455.26,593.41"/>
    </edge>
    <edge id=":245673500_21" function="internal">
        <lane id=":245673500_21_0" index="0" disallow="tram rail_urban rail rail_electric rail_fast ship" speed="7.32" length="9.19" shape="1464.27,600.94 1463.20,599.72 1460.39,600.05 1457.46,603.78"/>
    </edge>
    <edge id=":245673500_22" function="internal">
        <lane id=":245673500_22_0" index="0" disallow="tram rail_urban rail rail_electric rail_fast ship" speed="3.65" length="2.34" shape="1466.44,608.18 1465.80,608.80 1465.38,610.18"/>
    </edge>
    <edge id=":245673500_14" function="internal">
        <lane id=":245673500_14_0" index="0" disallow="tram rail_urban rail rail_electric rail_fast ship" speed="5.42" length="9.45" shape="1460.26,605.33 1461.46,604.04 1462.71,604.42 1464.02,606.47 1465.38,610.18"/>
    </edge>
    <edge id=":245673500_15" function="internal">
        <lane id=":245673500_15_0" index="0" disallow="tram rail_urban rail rail_electric rail_fast ship" speed="13.89" length="14.72" shape="1460.26,605.33 1462.00,602.05 1463.53,598.72 1464.80,595.30 1465.73,591.72"/>
    </edge>
    <edge id=":245673500_16" function="internal">
        <lane id=":245673500_16_0" index="0" disallow="tram rail_urban rail rail_electric rail_fast ship" speed="7.22" length="4.29" shape="1460.26,605.33 1461.08,602.57 1460.64,601.23"/>
    </edge>
    <edge id=":245673500_17" function="internal">
        <lane id=":245673500_17_0" index="0" disallow="tram rail_urban rail rail_electric rail_fast ship" speed="3.65" length="2.34" shape="1460.26,605.33 1460.14,603.89 1459.64,603.16"/>
    </edge>
    <edge id=":245673500_23" function="internal">
        <lane id=":245673500_23_0" index="0" disallow="tram rail_urban rail rail_electric rail_fast ship" speed="7.22" length="8.71" shape="1460.64,601.23 1460.28,600.14 1457.87,598.06 1453.85,596.32"/>
    </edge>
    <edge id=":245673500_24" function="internal">
        <lane id=":245673500_24_0" index="0" disallow="tram rail_urban rail rail_electric rail_fast ship" speed="3.65" length="2.34" shape="1459.64,603.16 1458.74,603.12 1457.46,603.78"/>
    </edge>
    <edge id=":245673642_0" function="internal">
        <lane id=":245673642_0_0" index="0" disallow="tram rail_urban rail rail_electric rail_fast ship" speed="11.10" length="15.08" shape="1711.12,646.53 1707.94,645.26 1705.18,643.12 1702.85,640.09 1700.95,636.19"/>
    </edge>
    <edge id=":245673642_1" function="internal">
        <lane id=":245673642_1_0" index="0" disallow="tram rail_urban rail rail_electric rail_fast ship" speed="13.89" length="17.97" shape="1711.12,646.53 1693.66,642.26"/>
    </edge>
    <edge id=":245673642_2" function="internal">
        <lane id=":245673642_2_0" index="0" disallow="tram rail_urban rail rail_electric rail_fast ship" speed="7.72" length="14.91" shape="1711.12,646.53 1706.94,646.13 1703.88,647.23 1701.91,649.83 1701.05,653.93"/>
    </edge>
    <edge id=":245673642_3" function="internal">
        <lane id=":245673642_3_0" index="0" disallow="tram rail_urban rail rail_electric rail_fast ship" speed="3.65" length="4.67" shape="1711.12,646.53 1709.76,647.03 1709.18,647.71 1709.38,648.58 1710.36,649.64"/>
    </edge>
    <edge id=":245673642_4" function="internal">