<?xml version="1.0" encoding="UTF-8"?>

<!-- generated on 2021-12-06 00:47:06 by Eclipse SUMO duarouter Version 1.9.2
<configuration xmlns:xsi="http://www.w3.org/2001/XMLSchema-instance" xsi:noNamespaceSchemaLocation="http://sumo.dlr.de/xsd/duarouterConfiguration.xsd">

    <input>
        <net-file value="C:\Users\saurabh\Sumo\2021-12-06-00-47-03\osm.net.xml"/>
        <route-files value="C:\Users\saurabh\Sumo\2021-12-06-00-47-03\osm.passenger.trips.xml"/>
    </input>

    <output>
        <output-file value="C:\Users\saurabh\Sumo\2021-12-06-00-47-03\osm.passenger.trips.xml.tmp"/>
        <write-trips value="true"/>
    </output>

    <time>
        <begin value="0"/>
        <end value="3600"/>
    </time>

    <report>
        <no-warnings value="true"/>
        <ignore-errors value="true"/>
        <no-step-log value="true"/>
    </report>

</configuration>
-->

<routes xmlns:xsi="http://www.w3.org/2001/XMLSchema-instance" xsi:noNamespaceSchemaLocation="http://sumo.dlr.de/xsd/routes_file.xsd">
    <vType id="veh_passenger" vClass="passenger"/>
    <trip id="veh0" type="veh_passenger" depart="0.00" departLane="best" from="22843276#1" to="-22843127#0"/>
    <trip id="veh1" type="veh_passenger" depart="9.61" departLane="best" departSpeed="max" from="177566523#0" to="-622415793#2"/>
    <trip id="veh2" type="veh_passenger" depart="19.22" departLane="best" from="273833832#2" to="273833832#3"/>
    <trip id="veh3" type="veh_passenger" depart="28.83" departLane="best" departSpeed="max" from="273833832#0" to="177566559#3"/>
    <trip id="veh4" type="veh_passenger" depart="38.44" departLane="best" from="366913700#3" to="273833832#4"/>
    <trip id="veh5" type="veh_passenger" depart="48.05" departLane="best" departSpeed="max" from="177566523#0" to="-52663744#1"/>
    <trip id="veh6" type="veh_passenger" depart="57.66" departLane="best" from="366913701#6" to="22843127#0"/>
    <trip id="veh7" type="veh_passenger" depart="67.27" departLane="best" from="366913700#3" to="273833832#5"/>
    <trip id="veh8" type="veh_passenger" depart="76.88" departLane="best" from="177566558#3" to="692042225"/>
    <trip id="veh9" type="veh_passenger" depart="86.49" departLane="best" from="177566523#2" to="177566559#4"/>
    <trip id="veh10" type="veh_passenger" depart="96.09" departLane="best" from="52511313#1" to="177566559#4"/>
    <trip id="veh11" type="veh_passenger" depart="105.70" departLane="best" departSpeed="max" from="273833832#0" to="-22843276#0"/>
    <trip id="veh12" type="veh_passenger" depart="115.31" departLane="best" from="-622415793#2" to="177566523#3"/>
    <trip id="veh13" type="veh_passenger" depart="124.92" departLane="best" from="-366913700#4" to="-692042225"/>
    <trip id="veh14" type="veh_passenger" depart="134.53" departLane="best" from="-366913701#3" to="177566523#2"/>
    <trip id="veh15" type="veh_passenger" depart="144.14" departLane="best" from="22843276#1" to="177566523#7"/>
    <trip id="veh16" type="veh_passenger" depart="153.75" departLane="best" departSpeed="max" from="273833832#0" to="22843127#0"/>
    <trip id="veh17" type="veh_passenger" depart="163.36" departLane="best" from="-52663744#3" to="273833832#5"/>
    <trip id="veh18" type="veh_passenger" depart="172.97" departLane="best" from="-52663744#1" to="177566523#7"/>
    <trip id="veh20" type="veh_passenger" depart="192.19" departLane="best" from="366913701#6" to="273833832#5"/>
    <trip id="veh21" type="veh_passenger" depart="201.80" departLane="best" from="-622415793#2" to="-22843127#2"/>
    <trip id="veh22" type="veh_passenger" depart="211.41" departLane="best" departSpeed="max" from="177566523#0" to="177566523#2"/>
    <trip id="veh23" type="veh_passenger" depart="221.02" departLane="best" from="52663746" to="177566556#1"/>
    <trip id="veh24" type="veh_passenger" depart="230.63" departLane="best" from="177566523#3" to="-622415793#2"/>
    <trip id="veh25" type="veh_passenger" depart="240.24" departLane="best" from="-366913701#5" to="22843276#1"/>
    <trip id="veh26" type="veh_passenger" depart="249.85" departLane="best" from="366913700#0" to="177566523#7"/>
    <trip id="veh27" type="veh_passenger" depart="259.46" departLane="best" from="-366913700#1" to="177566523#7"/>
    <trip id="veh28" type="veh_passenger" depart="269.06" departLane="best" from="692042225" to="52511313#0"/>
    <trip id="veh29" type="veh_passenger" depart="278.67" departLane="best" from="-185467797#0" to="273833832#5"/>
    <trip id="veh30" type="veh_passenger" depart="288.28" departLane="best" departSpeed="max" from="273833832#0" to="177566559#0"/>
    <trip id="veh32" type="veh_passenger" depart="307.50" departLane="best" from="-366913701#6" to="177566523#7"/>
    <trip id="veh33" type="veh_passenger" depart="317.11" departLane="best" departSpeed="max" from="177566558#0" to="-52664437#0"/>
    <trip id="veh35" type="veh_passenger" depart="336.33" departLane="best" from="273833832#4" to="177566558#8"/>
    <trip id="veh36" type="veh_passenger" depart="345.94" departLane="best" departSpeed="max" from="177566523#0" to="-366913700#0"/>
    <trip id="veh37" type="veh_passenger" depart="355.55" departLane="best" from="52514845#1" to="622415769#0"/>
    <trip id="veh39" type="veh_passenger" depart="374.77" departLane="best" from="-366913700#2" to="273833832#5"/>
    <trip id="veh40" type="veh_passenger" depart="384.38" departLane="best" from="273833832#3" to="-52511313#1"/>
    <trip id="veh41" type="veh_passenger" depart="393.99" departLane="best" from="177566523#5" to="-622415769#0"/>
    <trip id="veh42" type="veh_passenger" depart="403.60" departLane="best" from="177566558#4" to="273833832#5"/>
    <trip id="veh43" type="veh_passenger" depart="413.21" departLane="best" from="-547023629#0" to="177566523#4"/>
    <trip id="veh45" type="veh_passenger" depart="432.43" departLane="best" departSpeed="max" from="177566523#0" to="185467797#0"/>
    <trip id="veh46" type="veh_passenger" depart="442.03" departLane="best" from="-622415793#2" to="52663744#3"/>
    <trip id="veh47" type="veh_passenger" depart="451.64" departLane="best" from="52511313#0" to="-366913700#2"/>
    <trip id="veh48" type="veh_passenger" depart="461.25" departLane="best" from="-692042225" to="273833832#3"/>
    <trip id="veh49" type="veh_passenger" depart="470.86" departLane="best" from="-622415769#0" to="-52514845#0"/>
    <trip id="veh50" type="veh_passenger" depart="480.47" departLane="best" from="547023629#1" to="177566559#4"/>
    <trip id="veh52" type="veh_passenger" depart="499.69" departLane="best" from="366913700#3" to="-547023629#0"/>
    <trip id="veh53" type="veh_passenger" depart="509.30" departLane="best" from="-366913701#2" to="177566523#7"/>
    <trip id="veh54" type="veh_passenger" depart="518.91" departLane="best" from="177566523#5" to="177566556#1"/>
    <trip id="veh55" type="veh_passenger" depart="528.52" departLane="best" departSpeed="max" from="273833832#0" to="273833832#3"/>
    <trip id="veh56" type="veh_passenger" depart="538.13" departLane="best" from="723552318#0" to="-366913701#3"/>
    <trip id="veh57" type="veh_passenger" depart="547.74" departLane="best" from="177566523#4" to="177566523#5"/>
    <trip id="veh58" type="veh_passenger" depart="557.35" departLane="best" from="-52664437#1" to="177566523#7"/>
    <trip id="veh59" type="veh_passenger" depart="566.96" departLane="best" from="177566523#5" to="177566523#2"/>
    <trip id="veh60" type="veh_passenger" depart="576.57" departLane="best" from="-699397460" to="52664437#1"/>
    <trip id="veh61" type="veh_passenger" depart="586.18" departLane="best" from="177566523#5" to="52511313#0"/>
    <trip id="veh62" type="veh_passenger" depart="595.79" departLane="best" from="177566558#6" to="-22843276#1"/>
    <trip id="veh63" type="veh_passenger" depart="605.40" departLane="best" from="992408934" to="366913701#3"/>
    <trip id="veh64" type="veh_passenger" depart="615.01" departLane="best" from="672840525" to="52664437#1"/>
    <trip id="veh65" type="veh_passenger" depart="624.61" departLane="best" from="177566556#0" to="-622415793#1"/>
    <trip id="veh66" type="veh_passenger" depart="634.22" departLane="best" from="177566523#3" to="-366913700#0"/>
    <trip id="veh67" type="veh_passenger" depart="643.83" departLane="best" from="-992408934" to="273833832#5"/>
    <trip id="veh68" type="veh_passenger" depart="653.44" departLane="best" from="177566523#6" to="177566523#7"/>
    <trip id="veh69" type="veh_passenger" depart="663.05" departLane="best" from="622415793#2" to="992408934"/>
    <trip id="veh70" type="veh_passenger" depart="672.66" departLane="best" from="177566558#7" to="273833832#5"/>
    <trip id="veh71" type="veh_passenger" depart="682.27" departLane="best" from="-52514846#1" to="177566523#3"/>
    <trip id="veh72" type="veh_passenger" depart="691.88" departLane="best" from="672840525" to="177566559#4"/>
    <trip id="veh73" type="veh_passenger" depart="701.49" departLane="best" from="177566558#4" to="273833832#5"/>
    <trip id="veh75" type="veh_passenger" depart="720.71" departLane="best" departSpeed="max" from="177566558#0" to="52511312"/>
    <trip id="veh76" type="veh_passenger" depart="730.32" departLane="best" from="-366913700#4" to="-52664437#1"/>
    <trip id="veh77" type="veh_passenger" depart="739.93" departLane="best" from="52663744#0" to="-723552318#1"/>
    <trip id="veh78" type="veh_passenger" depart="749.54" departLane="best" from="-547023629#1" to="273833832#5"/>
    <trip id="veh79" type="veh_passenger" depart="759.15" departLane="best" from="-692042225" to="177566523#7"/>
    <trip id="veh80" type="veh_passenger" depart="768.76" departLane="best" departSpeed="max" from="273833832#0" to="177566523#3"/>
    <trip id="veh81" type="veh_passenger" depart="778.37" departLane="best" from="-366913700#2" to="177566556#1"/>
    <trip id="veh82" type="veh_passenger" depart="787.98" departLane="best" from="177566523#2" to="-52663744#1"/>
    <trip id="veh83" type="veh_passenger" depart="797.58" departLane="best" from="366913701#3" to="273833832#4"/>
    <trip id="veh84" type="veh_passenger" depart="807.19" departLane="best" departSpeed="max" from="273833832#0" to="-185467797#0"/>
    <trip id="veh85" type="veh_passenger" depart="816.80" departLane="best" from="366913701#0" to="177566523#3"/>
    <trip id="veh86" type="veh_passenger" depart="826.41" departLane="best" departSpeed="max" from="273833832#0" to="547023629#1"/>
    <trip id="veh87" type="veh_passenger" depart="836.02" departLane="best" from="-52514845#0" to="-52511312"/>
    <trip id="veh88" type="veh_passenger" depart="845.63" departLane="best" from="-366913701#5" to="177566559#4"/>
    <trip id="veh89" type="veh_passenger" depart="855.24" departLane="best" departSpeed="max" from="273833832#0" to="-547023629#2"/>
    <trip id="veh90" type="veh_passenger" depart="864.85" departLane="best" departSpeed="max" from="177566558#0" to="52663744#3"/>
    <trip id="veh91" type="veh_passenger" depart="874.46" departLane="best" from="366913701#6" to="-366913701#2"/>
    <trip id="veh92" type="veh_passenger" depart="884.07" departLane="best" from="177566523#5" to="177566523#2"/>
    <trip id="veh93" type="veh_passenger" depart="893.68" departLane="best" from="-104902793" to="273833832#5"/>
    <trip id="veh94" type="veh_passenger" depart="903.29" departLane="best" from="273833832#2" to="177566559#4"/>
    <trip id="veh95" type="veh_passenger" depart="912.90" departLane="best" from="52663744#3" to="177566559#3"/>
    <trip id="veh97" type="veh_passenger" depart="932.12" departLane="best" from="-52514846#0" to="-52511313#1"/>
    <trip id="veh98" type="veh_passenger" depart="941.73" departLane="best" departSpeed="max" from="177566523#0" to="52663744#0"/>
    <trip id="veh99" type="veh_passenger" depart="951.34" departLane="best" from="366913700#1" to="52511313#0"/>
    <trip id="veh100" type="veh_passenger" depart="960.95" departLane="best" from="52663744#2" to="-622415769#0"/>
    <trip id="veh101" type="veh_passenger" depart="970.56" departLane="best" from="273833832#4" to="52514846#0"/>
    <trip id="veh102" type="veh_passenger" depart="980.16" departLane="best" from="-52514846#1" to="547023629#0"/>
    <trip id="veh103" type="veh_passenger" depart="989.77" departLane="best" from="52511313#1" to="692042225"/>
    <trip id="veh104" type="veh_passenger" depart="999.38" departLane="best" from="-22843127#0" to="273833832#5"/>
    <trip id="veh105" type="veh_passenger" depart="1008.99" departLane="best" departSpeed="max" from="177566523#0" to="547023629#0"/>
    <trip id="veh106" type="veh_passenger" depart="1018.60" departLane="best" from="366913700#2" to="52511313#1"/>
    <trip id="veh107" type="veh_passenger" depart="1028.21" departLane="best" from="366913700#3" to="177566523#2"/>
    <trip id="veh108" type="veh_passenger" depart="1037.82" departLane="best" from="366913700#0" to="-366913701#6"/>
    <trip id="veh109" type="veh_passenger" depart="1047.43" departLane="best" from="52514845#1" to="52511313#0"/>
    <trip id="veh110" type="veh_passenger" depart="1057.04" departLane="best" from="366913700#1" to="-672840525"/>
    <trip id="veh111" type="veh_passenger" depart="1066.65" departLane="best" departSpeed="max" from="177566523#0" to="52511313#1"/>
    <trip id="veh112" type="veh_passenger" depart="1076.26" departLane="best" from="547023629#2" to="-52511312"/>
    <trip id="veh113" type="veh_passenger" depart="1085.87" departLane="best" from="-366913701#5" to="177566523#7"/>
    <trip id="veh114" type="veh_passenger" depart="1095.48" departLane="best" departSpeed="max" from="273833832#0" to="177566523#4"/>
    <trip id="veh115" type="veh_passenger" depart="1105.09" departLane="best" from="22843125" to="177566558#5"/>
    <trip id="veh116" type="veh_passenger" depart="1114.70" departLane="best" from="177566523#3" to="177566559#4"/>
    <trip id="veh117" type="veh_passenger" depart="1124.31" departLane="best" from="-723552318#1" to="273833832#5"/>
    <trip id="veh118" type="veh_passenger" depart="1133.92" departLane="best" from="-104902793" to="52664437#1"/>
    <trip id="veh119" type="veh_passenger" depart="1143.53" departLane="best" from="177566558#4" to="273833832#5"/>
    <trip id="veh120" type="veh_passenger" depart="1153.13" departLane="best" from="273833832#2" to="273833832#3"/>
    <trip id="veh121" type="veh_passenger" depart="1162.74" departLane="best" departSpeed="max" from="177566523#0" to="-366913700#2"/>
    <trip id="veh122" type="veh_passenger" depart="1172.35" departLane="best" departSpeed="max" from="273833832#0" to="177566523#5"/>
    <trip id="veh123" type="veh_passenger" depart="1181.96" departLane="best" departSpeed="max" from="177566523#0" to="366913701#6"/>
    <trip id="veh124" type="veh_passenger" depart="1191.57" departLane="best" departSpeed="max" from="273833832#0" to="177566523#3"/>
    <trip id="veh125" type="veh_passenger" depart="1201.18" departLane="best" departSpeed="max" from="177566523#0" to="177566523#7"/>
    <trip id="veh126" type="veh_passenger" depart="1210.79" departLane="best" from="-52511313#0" to="177566523#7"/>
    <trip id="veh127" type="veh_passenger" depart="1220.40" departLane="best" from="52663744#3" to="22843134"/>
    <trip id="veh128" type="veh_passenger" depart="1230.01" departLane="best" departSpeed="max" from="177566523#0" to="177566559#3"/>
    <trip id="veh130" type="veh_passenger" depart="1249.23" departLane="best" departSpeed="max" from="273833832#0" to="177566556#1"/>
    <trip id="veh132" type="veh_passenger" depart="1268.45" departLane="best" from="366913700#1" to="-52663744#3"/>
    <trip id="veh133" type="veh_passenger" depart="1278.06" departLane="best" from="366913701#0" to="273833832#5"/>
    <trip id="veh134" type="veh_passenger" depart="1287.67" departLane="best" departSpeed="max" from="273833832#0" to="-622415793#2"/>
    <trip id="veh135" type="veh_passenger" depart="1297.28" departLane="best" from="-547023629#0" to="-22843127#0"/>
    <trip id="veh136" type="veh_passenger" depart="1306.89" departLane="best" from="-699397460" to="177566556#1"/>
    <trip id="veh137" type="veh_passenger" depart="1316.50" departLane="best" from="52511312" to="-366913700#3"/>
    <trip id="veh138" type="veh_passenger" depart="1326.10" departLane="best" from="177566523#4" to="22843276#1"/>
    <trip id="veh139" type="veh_passenger" depart="1335.71" departLane="best" from="-52664437#1" to="273833832#4"/>
    <trip id="veh140" type="veh_passenger" depart="1345.32" departLane="best" departSpeed="max" from="177566558#0" to="-723552318#1"/>
    <trip id="veh141" type="veh_passenger" depart="1354.93" departLane="best" departSpeed="max" from="273833832#0" to="-104902793"/>
    <trip id="veh142" type="veh_passenger" depart="1364.54" departLane="best" from="273833832#3" to="273833832#5"/>
    <trip id="veh143" type="veh_passenger" depart="1374.15" departLane="best" from="-366913701#5" to="177566523#7"/>
    <trip id="veh144" type="veh_passenger" depart="1383.76" departLane="best" from="-52663744#3" to="622415793#0"/>
    <trip id="veh145" type="veh_passenger" depart="1393.37" departLane="best" departSpeed="max" from="177566558#0" to="-22843276#1"/>
    <trip id="veh146" type="veh_passenger" depart="1402.98" departLane="best" from="-699397460" to="366913701#6"/>
    <trip id="veh147" type="veh_passenger" depart="1412.59" departLane="best" departSpeed="max" from="273833832#0" to="723552318#0"/>
    <trip id="veh148" type="veh_passenger" depart="1422.20" departLane="best" from="185467797#0" to="622415769#0"/>
    <trip id="veh149" type="veh_passenger" depart="1431.81" departLane="best" from="52663744#0" to="22843127#1"/>
    <trip id="veh150" type="veh_passenger" depart="1441.42" departLane="best" departSpeed="max" from="273833832#0" to="177566558#4"/>
    <trip id="veh151" type="veh_passenger" depart="1451.03" departLane="best" from="52663744#2" to="273833832#5"/>
    <trip id="veh153" type="veh_passenger" depart="1470.25" departLane="best" from="22843134" to="177566523#2"/>
    <trip id="veh154" type="veh_passenger" depart="1479.86" departLane="best" from="-366913700#3" to="177566523#3"/>
    <trip id="veh155" type="veh_passenger" depart="1489.47" departLane="best" from="177566558#4" to="-52514845#1"/>
    <trip id="veh156" type="veh_passenger" depart="1499.08" departLane="best" from="-622415793#2" to="273833832#4"/>
    <trip id="veh157" type="veh_passenger" depart="1508.68" departLane="best" departSpeed="max" from="273833832#0" to="-366913700#1"/>
    <trip id="veh158" type="veh_passenger" depart="1518.29" departLane="best" from="177566523#4" to="177566559#2"/>
    <trip id="veh159" type="veh_passenger" depart="1527.90" departLane="best" from="177566523#4" to="52663744#2"/>
    <trip id="veh160" type="veh_passenger" depart="1537.51" departLane="best" from="177566559#3" to="273833832#4"/>
    <trip id="veh161" type="veh_passenger" depart="1547.12" departLane="best" from="52511313#0" to="273833832#5"/>
    <trip id="veh162" type="veh_passenger" depart="1556.73" departLane="best" from="177566523#2" to="-104902793"/>
    <trip id="veh163" type="veh_passenger" depart="1566.34" departLane="best" from="177566523#4" to="273833832#5"/>
    <trip id="veh164" type="veh_passenger" depart="1575.95" departLane="best" departSpeed="max" from="177566523#0" to="273833832#3"/>
    <trip id="veh165" type="veh_passenger" depart="1585.56" departLane="best" from="177566523#4" to="-52663744#2"/>
    <trip id="veh167" type="veh_passenger" depart="1604.78" departLane="best" from="177566523#3" to="177566559#4"/>
    <trip id="veh169" type="veh_passenger" depart="1624.00" departLane="best" from="-52514845#0" to="177566556#1"/>
    <trip id="veh170" type="veh_passenger" depart="1633.61" departLane="best" from="-22843276#1" to="177566523#7"/>
    <trip id="veh171" type="veh_passenger" depart="1643.22" departLane="best" from="-547023629#2" to="177566523#5"/>
    <trip id="veh172" type="veh_passenger" depart="1652.83" departLane="best" from="273833832#3" to="177566523#7"/>
    <trip id="veh173" type="veh_passenger" depart="1662.44" departLane="best" from="-22843125" to="177566559#2"/>
    <trip id="veh174" type="veh_passenger" depart="1672.05" departLane="best" from="992408934" to="177566523#6"/>
    <trip id="veh175" type="veh_passenger" depart="1681.65" departLane="best" departSpeed="max" from="273833832#0" to="273833832#5"/>
    <trip id="veh176" type="veh_passenger" depart="1691.26" departLane="best" departSpeed="max" from="273833832#0" to="273833832#5"/>
    <trip id="veh177" type="veh_passenger" depart="1700.87" departLane="best" from="-22843125" to="-52514846#1"/>
    <trip id="veh178" type="veh_passenger" depart="1710.48" departLane="best" departSpeed="max" from="273833832#0" to="273833832#5"/>
    <trip id="veh179" type="veh_passenger" depart="1720.09" departLane="best" from="-52663744#2" to="22843127#0"/>
    <trip id="veh180" type="veh_passenger" depart="1729.70" departLane="best" from="366913701#0" to="672840525"/>
    <trip id="veh181" type="veh_passenger" depart="1739.31" departLane="best" from="-366913701#5" to="-22843127#0"/>
    <trip id="veh182" type="veh_passenger" depart="1748.92" departLane="best" departSpeed="max" from="177566523#0" to="273833832#3"/>
    <trip id="veh183" type="veh_passenger" depart="1758.53" departLane="best" from="622415793#2" to="177566523#7"/>
    <trip id="veh184" type="veh_passenger" depart="1768.14" departLane="best" departSpeed="max" from="273833832#0" to="-366913700#3"/>
    <trip id="veh185" type="veh_passenger" depart="1777.75" departLane="best" departSpeed="max" from="273833832#0" to="22843276#1"/>
    <trip id="veh186" type="veh_passenger" depart="1787.36" departLane="best" from="-366913701#3" to="273833832#5"/>
    <trip id="veh188" type="veh_passenger" depart="1806.58" departLane="best" from="-52511312" to="723552318#0"/>
    <trip id="veh189" type="veh_passenger" depart="1816.19" departLane="best" from="273833832#4" to="177566523#6"/>
    <trip id="veh190" type="veh_passenger" depart="1825.80" departLane="best" from="177566523#5" to="177566523#7"/>
    <trip id="veh191" type="veh_passenger" depart="1835.41" departLane="best" departSpeed="max" from="177566558#0" to="177566523#5"/>
    <trip id="veh192" type="veh_passenger" depart="1845.02" departLane="best" from="52511312" to="366913700#4"/>
    <trip id="veh193" type="veh_passenger" depart="1854.62" departLane="best" from="-366913701#5" to="622415793#2"/>
    <trip id="veh194" type="veh_passenger" depart="1864.23" departLane="best" from="273833832#2" to="672840525"/>
    <trip id="veh195" type="veh_passenger" depart="1873.84" departLane="best" from="177566558#4" to="177566556#1"/>
    <trip id="veh196" type="veh_passenger" depart="1883.45" departLane="best" from="177566523#5" to="273833832#5"/>
    <trip id="veh197" type="veh_passenger" depart="1893.06" departLane="best" from="104902793" to="366913701#6"/>
    <trip id="veh198" type="veh_passenger" depart="1902.67" departLane="best" from="52514846#0" to="-723552318#1"/>
    <trip id="veh200" type="veh_passenger" depart="1921.89" departLane="best" from="177566523#2" to="-22843127#0"/>
    <trip id="veh201" type="veh_passenger" depart="1931.50" departLane="best" from="-547023629#2" to="366913700#0"/>
    <trip id="veh202" type="veh_passenger" depart="1941.11" departLane="best" departSpeed="max" from="177566523#0" to="52514845#1"/>
    <trip id="veh203" type="veh_passenger" depart="1950.72" departLane="best" departSpeed="max" from="273833832#0" to="177566523#2"/>
    <trip id="veh204" type="veh_passenger" depart="1960.33" departLane="best" from="-185467797#0" to="622415769#0"/>
    <trip id="veh205" type="veh_passenger" depart="1969.94" departLane="best" from="-366913701#0" to="273833832#5"/>
    <trip id="veh206" type="veh_passenger" depart="1979.55" departLane="best" departSpeed="max" from="273833832#0" to="273833832#0"/>
    <trip id="veh207" type="veh_passenger" depart="1989.16" departLane="best" departSpeed="max" from="177566558#0" to="366913700#0"/>
    <trip id="veh208" type="veh_passenger" depart="1998.77" departLane="best" departSpeed="max" from="273833832#0" to="177566523#4"/>
    <trip id="veh209" type="veh_passenger" depart="2008.38" departLane="best" from="177566559#3" to="177566556#1"/>
    <trip id="veh210" type="veh_passenger" depart="2017.99" departLane="best" from="177566558#3" to="177566523#7"/>
    <trip id="veh211" type="veh_passenger" depart="2027.60" departLane="best" departSpeed="max" from="273833832#0" to="177566523#2"/>
    <trip id="veh212" type="veh_passenger" depart="2037.20" departLane="best" from="-52664437#1" to="-52511313#0"/>
    <trip id="veh213" type="veh_passenger" depart="2046.81" departLane="best" from="177566558#3" to="273833832#5"/>
    <trip id="veh214" type="veh_passenger" depart="2056.42" departLane="best" from="-52664437#0" to="-622415793#1"/>
    <trip id="veh215" type="veh_passenger" depart="2066.03" departLane="best" from="177566556#0" to="273833832#5"/>
    <trip id="veh216" type="veh_passenger" depart="2075.64" departLane="best" departSpeed="max" from="177566523#0" to="-366913701#3"/>
    <trip id="veh217" type="veh_passenger" depart="2085.25" departLane="best" from="-52664437#1" to="-672840525"/>
    <trip id="veh218" type="veh_passenger" depart="2094.86" departLane="best" from="-52663746" to="-185467797#1"/>
    <trip id="veh219" type="veh_passenger" depart="2104.47" departLane="best" from="692042225" to="177566559#4"/>
    <trip id="veh220" type="veh_passenger" depart="2114.08" departLane="best" departSpeed="max" from="273833832#0" to="-52511313#1"/>
    <trip id="veh222" type="veh_passenger" depart="2133.30" departLane="best" from="52514845#1" to="177566559#4"/>
    <trip id="veh223" type="veh_passenger" depart="2142.91" departLane="best" from="177566523#7" to="177566523#7"/>
    <trip id="veh224" type="veh_passenger" depart="2152.52" departLane="best" from="-52664437#0" to="-22843276#1"/>
    <trip id="veh225" type="veh_passenger" depart="2162.13" departLane="best" from="547023629#2" to="177566556#1"/>
    <trip id="veh226" type="veh_passenger" depart="2171.74" departLane="best" from="366913701#0" to="177566523#7"/>
    <trip id="veh227" type="veh_passenger" depart="2181.35" departLane="best" from="273833832#3" to="22843127#0"/>
    <trip id="veh228" type="veh_passenger" depart="2190.96" departLane="best" from="366913700#0" to="-672840525"/>
    <trip id="veh229" type="veh_passenger" depart="2200.57" departLane="best" from="177566523#5" to="52511313#0"/>
    <trip id="veh230" type="veh_passenger" depart="2210.17" departLane="best" from="273833832#2" to="622415769#0"/>
    <trip id="veh231" type="veh_passenger" depart="2219.78" departLane="best" departSpeed="max" from="273833832#0" to="-52663744#1"/>
    <trip id="veh232" type="veh_passenger" depart="2229.39" departLane="best" from="-52663744#3" to="-366913700#3"/>
    <trip id="veh233" type="veh_passenger" depart="2239.00" departLane="best" from="-104902793" to="177566556#0"/>
    <trip id="veh234" type="veh_passenger" depart="2248.61" departLane="best" from="-622415793#2" to="273833832#5"/>
    <trip id="veh235" type="veh_passenger" depart="2258.22" departLane="best" departSpeed="max" from="273833832#0" to="177566556#0"/>
    <trip id="veh236" type="veh_passenger" depart="2267.83" departLane="best" departSpeed="max" from="273833832#0" to="52664437#1"/>
    <trip id="veh237" type="veh_passenger" depart="2277.44" departLane="best" departSpeed="max" from="273833832#0" to="547023629#0"/>
    <trip id="veh238" type="veh_passenger" depart="2287.05" departLane="best" departSpeed="max" from="273833832#0" to="52663744#3"/>
    <trip id="veh239" type="veh_passenger" depart="2296.66" departLane="best" from="-52663744#2" to="177566523#4"/>
    <trip id="veh240" type="veh_passenger" depart="2306.27" departLane="best" from="273833832#2" to="177566559#4"/>
    <trip id="veh241" type="veh_passenger" depart="2315.88" departLane="best" departSpeed="max" from="177566523#0" to="-52511313#1"/>
    <trip id="veh242" type="veh_passenger" depart="2325.49" departLane="best" departSpeed="max" from="273833832#0" to="273833832#4"/>
    <trip id="veh243" type="veh_passenger" depart="2335.10" departLane="best" departSpeed="max" from="177566558#0" to="-366913700#4"/>
    <trip id="veh244" type="veh_passenger" depart="2344.71" departLane="best" from="-22843134" to="177566523#7"/>
    <trip id="veh245" type="veh_passenger" depart="2354.32" departLane="best" departSpeed="max" from="177566523#0" to="-723552318#2"/>
    <trip id="veh246" type="veh_passenger" depart="2363.93" departLane="best" from="366913701#4" to="177566559#4"/>
    <trip id="veh247" type="veh_passenger" depart="2373.54" departLane="best" departSpeed="max" from="273833832#0" to="177566523#2"/>
    <trip id="veh248" type="veh_passenger" depart="2383.15" departLane="best" from="-22843134" to="273833832#5"/>
    <trip id="veh249" type="veh_passenger" depart="2392.75" departLane="best" departSpeed="max" from="177566558#0" to="-366913701#2"/>
    <trip id="veh250" type="veh_passenger" depart="2402.36" departLane="best" departSpeed="max" from="177566523#0" to="177566523#5"/>
    <trip id="veh251" type="veh_passenger" depart="2411.97" departLane="best" departSpeed="max" from="273833832#0" to="52511312"/>
    <trip id="veh252" type="veh_passenger" depart="2421.58" departLane="best" departSpeed="max" from="177566523#0" to="273833832#4"/>
    <trip id="veh253" type="veh_passenger" depart="2431.19" departLane="best" departSpeed="max" from="177566523#0" to="547023629#2"/>
    <trip id="veh254" type="veh_passenger" depart="2440.80" departLane="best" departSpeed="max" from="177566523#0" to="672840525"/>
    <trip id="veh255" type="veh_passenger" depart="2450.41" departLane="best" from="723552318#2" to="273833832#2"/>
    <trip id="veh256" type="veh_passenger" depart="2460.02" departLane="best" from="177566558#4" to="177566523#7"/>