<?xml version="1.0" encoding="UTF-8"?>

<!-- generated on 2021-12-06 00:32:43 by Eclipse SUMO netconvert Version 1.9.2
<configuration xmlns:xsi="http://www.w3.org/2001/XMLSchema-instance" xsi:noNamespaceSchemaLocation="http://sumo.dlr.de/xsd/netconvertConfiguration.xsd">

    <input>
        <type-files value="C:\Program%20Files%20(x86)\Eclipse\Sumo\data\typemap\osmNetconvert.typ.xml"/>
        <osm-files value="osm_bbox.osm.xml"/>
    </input>

    <output>
        <output-file value="osm.net.xml"/>
        <output.street-names value="true"/>
        <output.original-names value="true"/>
    </output>

    <projection>
        <proj.utm value="true"/>
    </projection>

    <processing>
        <geometry.remove value="true"/>
        <roundabouts.guess value="true"/>
        <lefthand value="true"/>
    </processing>

    <tls_building>
        <tls.discard-simple value="true"/>
        <tls.join value="true"/>
        <tls.guess-signals value="true"/>
        <tls.default-type value="actuated"/>
    </tls_building>

    <ramp_guessing>
        <ramps.guess value="true"/>
    </ramp_guessing>

    <junctions>
        <junctions.join value="true"/>
        <junctions.corner-detail value="5"/>
    </junctions>

    <report>
        <verbose value="true"/>
        <aggregate-warnings value="5"/>
    </report>

</configuration>
-->

<net version="1.9" junctionCornerDetail="5" lefthand="true" limitTurnSpeed="5.50" xmlns:xsi="http://www.w3.org/2001/XMLSchema-instance" xsi:noNamespaceSchemaLocation="http://sumo.dlr.de/xsd/net_file.xsd">

    <location netOffset="-270676.52,-2115352.71" convBoundary="0.00,-0.00,12818.80,2799.82" origBoundary="72.819690,19.119326,72.941679,19.143641" projParameter="+proj=utm +zone=43 +ellps=WGS84 +datum=WGS84 +units=m +no_defs"/>

    <type id="highway.bridleway" priority="1" numLanes="1" speed="2.78" allow="pedestrian" oneway="1" width="2.00"/>
    <type id="highway.bus_guideway" priority="1" numLanes="1" speed="27.78" allow="bus" oneway="1"/>
    <type id="highway.cycleway" priority="1" numLanes="1" speed="8.33" allow="bicycle" oneway="0" width="1.00"/>
    <type id="highway.footway" priority="1" numLanes="1" speed="2.78" allow="pedestrian" oneway="1" width="2.00"/>
    <type id="highway.ford" priority="1" numLanes="1" speed="2.78" allow="army" oneway="0"/>
    <type id="highway.living_street" priority="2" numLanes="1" speed="2.78" disallow="tram rail_urban rail rail_electric rail_fast ship" oneway="0"/>
    <type id="highway.motorway" priority="14" numLanes="2" speed="39.44" allow="private emergency authority army vip passenger hov taxi bus coach delivery truck trailer motorcycle evehicle custom1 custom2" oneway="1"/>
    <type id="highway.motorway_link" priority="9" numLanes="1" speed="22.22" allow="private emergency authority army vip passenger hov taxi bus coach delivery truck trailer motorcycle evehicle custom1 custom2" oneway="1"/>
    <type id="highway.path" priority="1" numLanes="1" speed="2.78" allow="pedestrian bicycle" oneway="0" width="2.00"/>
    <type id="highway.pedestrian" priority="1" numLanes="1" speed="2.78" allow="pedestrian" oneway="1" width="2.00"/>
    <type id="highway.primary" priority="12" numLanes="2" speed="27.78" disallow="tram rail_urban rail rail_electric rail_fast ship" oneway="0"/>
    <type id="highway.primary_link" priority="7" numLanes="1" speed="22.22" disallow="tram rail_urban rail rail_electric rail_fast ship" oneway="0"/>
    <type id="highway.raceway" priority="15" numLanes="2" speed="83.33" allow="vip" oneway="0"/>
    <type id="highway.residential" priority="3" numLanes="1" speed="13.89" disallow="tram rail_urban rail rail_electric rail_fast ship" oneway="0"/>
    <type id="highway.secondary" priority="11" numLanes="1" speed="27.78" disallow="tram rail_urban rail rail_electric rail_fast ship" oneway="0"/>
    <type id="highway.secondary_link" priority="6" numLanes="1" speed="22.22" disallow="tram rail_urban rail rail_electric rail_fast ship" oneway="0"/>
    <type id="highway.service" priority="1" numLanes="1" speed="5.56" allow="pedestrian delivery bicycle" oneway="0"/>
    <type id="highway.stairs" priority="1" numLanes="1" speed="1.39" allow="pedestrian" oneway="1" width="2.00"/>
    <type id="highway.step" priority="1" numLanes="1" speed="1.39" allow="pedestrian" oneway="1" width="2.00"/>
    <type id="highway.steps" priority="1" numLanes="1" speed="1.39" allow="pedestrian" oneway="1" width="2.00"/>
    <type id="highway.tertiary" priority="10" numLanes="1" speed="22.22" disallow="tram rail_urban rail rail_electric rail_fast ship" oneway="0"/>
    <type id="highway.tertiary_link" priority="5" numLanes="1" speed="22.22" disallow="tram rail_urban rail rail_electric rail_fast ship" oneway="0"/>
    <type id="highway.track" priority="1" numLanes="1" speed="5.56" allow="pedestrian motorcycle moped bicycle" oneway="0"/>
    <type id="highway.trunk" priority="13" numLanes="2" speed="27.78" disallow="pedestrian bicycle tram rail_urban rail rail_electric rail_fast ship" oneway="0"/>
    <type id="highway.trunk_link" priority="8" numLanes="1" speed="22.22" disallow="pedestrian bicycle tram rail_urban rail rail_electric rail_fast ship" oneway="0"/>
    <type id="highway.unclassified" priority="4" numLanes="1" speed="13.89" disallow="tram rail_urban rail rail_electric rail_fast ship" oneway="0"/>
    <type id="highway.unsurfaced" priority="1" numLanes="1" speed="8.33" disallow="tram rail_urban rail rail_electric rail_fast ship" oneway="0"/>
    <type id="railway.highspeed" priority="21" numLanes="1" speed="69.44" allow="rail_fast" oneway="1"/>
    <type id="railway.light_rail" priority="19" numLanes="1" speed="27.78" allow="rail_urban" oneway="1"/>
    <type id="railway.preserved" priority="16" numLanes="1" speed="27.78" allow="rail" oneway="1"/>
    <type id="railway.rail" priority="20" numLanes="1" speed="44.44" allow="rail" oneway="1"/>
    <type id="railway.subway" priority="18" numLanes="1" speed="27.78" allow="rail_urban" oneway="1"/>
    <type id="railway.tram" priority="17" numLanes="1" speed="13.89" allow="tram" oneway="1"/>

    <edge id=":1209663102_0" function="internal">
        <lane id=":1209663102_0_0" index="0" disallow="tram rail_urban rail rail_electric rail_fast ship" speed="5.51" length="8.44" shape="10294.16,720.59 10293.75,723.32 10292.77,724.88 10291.23,725.27 10289.12,724.50"/>
    </edge>
    <edge id=":1209663102_1" function="internal">
        <lane id=":1209663102_1_0" index="0" disallow="tram rail_urban rail rail_electric rail_fast ship" speed="3.65" length="4.67" shape="10294.16,720.59 10294.91,721.82 10295.70,722.25 10296.51,721.89 10297.36,720.72"/>
    </edge>
    <edge id=":1209663102_2" function="internal">
        <lane id=":1209663102_2_0" index="0" disallow="tram rail_urban rail rail_electric rail_fast ship" speed="12.10" length="13.22" shape="10300.11,733.26 10298.24,730.43 10297.40,727.47 10297.23,724.26 10297.36,720.72"/>
    </edge>
    <edge id=":1209663102_3" function="internal">
        <lane id=":1209663102_3_0" index="0" disallow="tram rail_urban rail rail_electric rail_fast ship" speed="22.22" length="14.12" shape="10300.11,733.26 10297.59,730.67 10294.99,728.41 10292.20,726.39 10289.12,724.50"/>
    </edge>
    <edge id=":177566523#1-AddedOnRampNode_0" function="internal">
        <lane id=":177566523#1-AddedOnRampNode_0_0" index="0" disallow="tram rail_urban rail rail_electric rail_fast ship" speed="27.78" length="8.00" shape="10658.66,863.45 10656.21,871.07"/>
        <lane id=":177566523#1-AddedOnRampNode_0_1" index="1" disallow="tram rail_urban rail rail_electric rail_fast ship" speed="27.78" length="8.00" shape="10661.71,864.43 10659.26,872.05"/>
        <lane id=":177566523#1-AddedOnRampNode_0_2" index="2" disallow="tram rail_urban rail rail_electric rail_fast ship" speed="27.78" length="8.00" shape="10664.75,865.41 10662.30,873.03"/>
    </edge>
    <edge id=":1879817526_0" function="internal">
        <lane id=":1879817526_0_0" index="0" disallow="tram rail_urban rail rail_electric rail_fast ship" speed="6.64" length="9.52" shape="10121.35,572.87 10120.27,575.29 10118.70,576.78 10116.64,577.34 10114.09,576.97"/>
    </edge>
    <edge id=":1879817526_1" function="internal">
        <lane id=":1879817526_1_0" index="0" disallow="tram rail_urban rail rail_electric rail_fast ship" speed="3.65" length="4.68" shape="10121.35,572.87 10121.70,574.28 10122.32,574.92 10123.21,574.81 10124.37,573.95"/>
    </edge>
    <edge id=":1879817526_2" function="internal">
        <lane id=":1879817526_2_0" index="0" disallow="tram rail_urban rail rail_electric rail_fast ship" speed="6.39" length="8.94" shape="10128.07,580.78 10125.85,579.86 10124.50,578.42 10124.00,576.45 10124.37,573.95"/>
    </edge>
    <edge id=":1879817526_3" function="internal">
        <lane id=":1879817526_3_0" index="0" disallow="tram rail_urban rail rail_electric rail_fast ship" speed="13.89" length="14.50" shape="10128.07,580.78 10114.09,576.97"/>
    </edge>
    <edge id=":1879817556_0" function="internal">
        <lane id=":1879817556_0_0" index="0" disallow="tram rail_urban rail rail_electric rail_fast ship" speed="13.89" length="16.31" shape="10164.68,612.13 10162.91,615.67 10161.25,619.53 10159.74,623.45 10158.40,627.17"/>
    </edge>
    <edge id=":1879817556_1" function="internal">
        <lane id=":1879817556_1_0" index="0" disallow="tram rail_urban rail rail_electric rail_fast ship" speed="6.98" length="1.09" shape="10164.68,612.13 10164.63,613.22"/>
    </edge>
    <edge id=":1879817556_2" function="internal">
        <lane id=":1879817556_2_0" index="0" disallow="tram rail_urban rail rail_electric rail_fast ship" speed="3.65" length="2.34" shape="10164.68,612.13 10164.80,613.57 10165.30,614.31"/>
    </edge>
    <edge id=":1879817556_11" function="internal">
        <lane id=":1879817556_11_0" index="0" disallow="tram rail_urban rail rail_electric rail_fast ship" speed="6.98" length="7.74" shape="10164.63,613.22 10165.43,614.73 10167.10,616.68 10169.62,619.05"/>
    </edge>
    <edge id=":1879817556_12" function="internal">
        <lane id=":1879817556_12_0" index="0" disallow="tram rail_urban rail rail_electric rail_fast ship" speed="3.65" length="2.34" shape="10165.30,614.31 10166.20,614.35 10167.48,613.68"/>
    </edge>
    <edge id=":1879817556_3" function="internal">
        <lane id=":1879817556_3_0" index="0" disallow="tram rail_urban rail rail_electric rail_fast ship" speed="5.14" length="6.77" shape="10161.43,628.23 10162.46,625.70 10163.47,624.13 10164.45,623.52 10165.41,623.86"/>
    </edge>
    <edge id=":1879817556_4" function="internal">
        <lane id=":1879817556_4_0" index="0" disallow="tram rail_urban rail rail_electric rail_fast ship" speed="13.89" length="15.77" shape="10161.43,628.23 10162.73,624.58 10164.16,620.83 10165.75,617.14 10167.48,613.68"/>
    </edge>
    <edge id=":1879817556_5" function="internal">
        <lane id=":1879817556_5_0" index="0" disallow="tram rail_urban rail rail_electric rail_fast ship" speed="3.65" length="2.34" shape="10161.43,628.23 10161.07,626.83 10160.44,626.19"/>
    </edge>
    <edge id=":1879817556_13" function="internal">
        <lane id=":1879817556_13_0" index="0" disallow="tram rail_urban rail rail_electric rail_fast ship" speed="3.65" length="2.34" shape="10160.44,626.19 10159.56,626.30 10158.40,627.17"/>
    </edge>
    <edge id=":1879817556_6" function="internal">
        <lane id=":1879817556_6_0" index="0" disallow="tram rail_urban rail rail_electric rail_fast ship" speed="7.24" length="10.66" shape="10155.84,617.95 10157.87,619.37 10158.98,621.38 10159.16,623.98 10158.40,627.17"/>
    </edge>
    <edge id=":1879817556_7" function="internal">
        <lane id=":1879817556_7_0" index="0" disallow="tram rail_urban rail rail_electric rail_fast ship" speed="27.78" length="12.28" shape="10155.84,617.95 10158.90,619.33 10160.96,620.38 10162.85,621.70 10165.41,623.86"/>
        <lane id=":1879817556_7_1" index="1" disallow="tram rail_urban rail rail_electric rail_fast ship" speed="27.78" length="12.28" shape="10157.15,615.03 10160.47,616.53 10162.70,617.68 10164.74,619.11 10167.52,621.46"/>
        <lane id=":1879817556_7_2" index="2" disallow="tram rail_urban rail rail_electric rail_fast ship" speed="27.78" length="12.28" shape="10158.46,612.11 10162.04,613.72 10164.43,614.97 10166.64,616.52 10169.62,619.05"/>
    </edge>
    <edge id=":1879817556_10" function="internal">
        <lane id=":1879817556_10_0" index="0" disallow="tram rail_urban rail rail_electric rail_fast ship" speed="6.89" length="9.59" shape="10158.46,612.11 10161.99,613.54 10164.67,614.28 10166.50,614.33 10167.48,613.68"/>
    </edge>
    <edge id=":1879817582_0" function="internal">
        <lane id=":1879817582_0_0" index="0" disallow="tram rail_urban rail rail_electric rail_fast ship" speed="5.81" length="9.14" shape="10175.07,641.03 10176.54,638.79 10178.20,637.88 10180.04,638.30 10182.07,640.04"/>
    </edge>
    <edge id=":1879817582_1" function="internal">
        <lane id=":1879817582_1_0" index="0" disallow="tram rail_urban rail rail_electric rail_fast ship" speed="13.89" length="23.65" shape="10175.07,641.03 10176.29,636.14 10176.79,629.42 10176.61,622.65 10175.81,617.61"/>
    </edge>
    <edge id=":1879817582_2" function="internal">
        <lane id=":1879817582_2_0" index="0" disallow="tram rail_urban rail rail_electric rail_fast ship" speed="3.65" length="4.67" shape="10175.07,641.03 10174.86,639.61 10174.31,638.90 10173.41,638.92 10172.18,639.66"/>
    </edge>
    <edge id=":1879817582_3" function="internal">
        <lane id=":1879817582_3_0" index="0" disallow="tram rail_urban rail rail_electric rail_fast ship" speed="10.08" length="18.24" shape="10165.56,624.00 10169.69,628.23 10172.18,632.25 10173.00,636.06 10172.18,639.66"/>
    </edge>
    <edge id=":1879817582_4" function="internal">
        <lane id=":1879817582_4_0" index="0" disallow="tram rail_urban rail rail_electric rail_fast ship" speed="27.78" length="23.47" shape="10165.56,624.00 10170.72,628.49 10174.21,631.62 10177.50,634.96 10182.07,640.04"/>
        <lane id=":1879817582_4_1" index="1" disallow="tram rail_urban rail rail_electric rail_fast ship" speed="27.78" length="23.47" shape="10167.67,621.59 10172.92,626.16 10176.47,629.36 10179.82,632.75 10184.47,637.93"/>
        <lane id=":1879817582_4_2" index="2" disallow="tram rail_urban rail rail_electric rail_fast ship" speed="27.78" length="23.47" shape="10169.77,619.18 10175.12,623.83 10178.73,627.09 10182.13,630.54 10186.87,635.81"/>
    </edge>
    <edge id=":1879817582_7" function="internal">
        <lane id=":1879817582_7_0" index="0" disallow="tram rail_urban rail rail_electric rail_fast ship" speed="5.79" length="12.33" shape="10169.77,619.18 10173.49,622.00 10175.73,622.68 10176.51,621.22 10175.81,617.61"/>
    </edge>
    <edge id=":1879817582_8" function="internal">
        <lane id=":1879817582_8_0" index="0" disallow="tram rail_urban rail rail_electric rail_fast ship" speed="13.89" length="21.36" shape="10172.75,618.55 10173.58,623.23 10173.81,629.20 10173.37,635.13 10172.18,639.66"/>
    </edge>
    <edge id=":1879817582_9" function="internal">
        <lane id=":1879817582_9_0" index="0" disallow="tram rail_urban rail rail_electric rail_fast ship" speed="20.84" length="22.42" shape="10172.75,618.55 10174.54,622.09 10177.59,625.84 10181.76,630.26 10186.87,635.81"/>
    </edge>
    <edge id=":1879817582_10" function="internal">
        <lane id=":1879817582_10_0" index="0" disallow="tram rail_urban rail rail_electric rail_fast ship" speed="3.65" length="4.67" shape="10172.75,618.55 10173.87,619.46 10174.75,619.61 10175.40,618.99 10175.81,617.61"/>
    </edge>
    <edge id=":1879817626_0" function="internal">
        <lane id=":1879817626_0_0" index="0" disallow="tram rail_urban rail rail_electric rail_fast ship" speed="20.84" length="3.16" shape="10267.04,699.84 10266.42,699.14 10266.01,698.65 10265.62,698.14 10265.07,697.38"/>
    </edge>
    <edge id=":1879817626_1" function="internal">
        <lane id=":1879817626_1_0" index="0" disallow="tram rail_urban rail rail_electric rail_fast ship" speed="27.78" length="3.16" shape="10264.63,701.96 10262.55,699.59"/>
        <lane id=":1879817626_1_1" index="1" disallow="tram rail_urban rail rail_electric rail_fast ship" speed="27.78" length="3.16" shape="10262.23,704.07 10260.15,701.71"/>
        <lane id=":1879817626_1_2" index="2" disallow="tram rail_urban rail rail_electric rail_fast ship" speed="27.78" length="3.16" shape="10259.83,706.19 10257.75,703.82"/>
    </edge>
    <edge id=":1879817632_0" function="internal">
        <lane id=":1879817632_0_0" index="0" disallow="tram rail_urban rail rail_electric rail_fast ship" speed="25.00" length="19.40" shape="10288.94,724.40 10286.00,722.15 10283.28,719.05 10280.19,715.07 10276.13,710.16"/>
        <lane id=":1879817632_0_1" index="1" disallow="tram rail_urban rail rail_electric rail_fast ship" speed="25.00" length="19.40" shape="10288.94,724.40 10285.64,722.49 10282.12,720.15 10278.21,716.90 10273.73,712.28"/>
    </edge>
    <edge id=":1879817632_2" function="internal">
        <lane id=":1879817632_2_0" index="0" disallow="tram rail_urban rail rail_electric rail_fast ship" speed="27.78" length="20.34" shape="10287.17,727.54 10273.73,712.28"/>
        <lane id=":1879817632_2_1" index="1" disallow="tram rail_urban rail rail_electric rail_fast ship" speed="27.78" length="20.34" shape="10284.77,729.65 10271.32,714.39"/>
        <lane id=":1879817632_2_2" index="2" disallow="tram rail_urban rail rail_electric rail_fast ship" speed="27.78" length="20.34" shape="10282.37,731.77 10268.92,716.51"/>
    </edge>
    <edge id=":1879817644_0" function="internal">
        <lane id=":1879817644_0_0" index="0" disallow="tram rail_urban rail rail_electric rail_fast ship" speed="22.22" length="3.39" shape="10699.82,730.60 10698.16,733.55"/>
    </edge>
    <edge id=":1879817644_1" function="internal">
        <lane id=":1879817644_1_0" index="0" disallow="tram rail_urban rail rail_electric rail_fast ship" speed="22.22" length="3.19" shape="10702.56,732.24 10702.08,733.05 10701.76,733.62 10701.48,734.20 10701.09,735.06"/>
    </edge>
    <edge id=":1879817651_0" function="internal">
        <lane id=":1879817651_0_0" index="0" disallow="tram rail_urban rail rail_electric rail_fast ship" speed="25.00" length="2.71" shape="10685.73,769.43 10685.40,770.17 10685.17,770.67 10684.97,771.18 10684.72,771.94"/>
    </edge>
    <edge id=":1879817651_1" function="internal">
        <lane id=":1879817651_1_0" index="0" disallow="tram rail_urban rail rail_electric rail_fast ship" speed="27.78" length="1.68" shape="10688.59,770.89 10688.30,771.47 10688.12,771.88 10687.97,772.30 10687.77,772.92"/>
        <lane id=":1879817651_1_1" index="1" disallow="tram rail_urban rail rail_electric rail_fast ship" speed="27.78" length="1.68" shape="10691.44,772.35 10691.22,772.79 10691.08,773.10 10690.97,773.43 10690.81,773.90"/>
        <lane id=":1879817651_1_2" index="2" disallow="tram rail_urban rail rail_electric rail_fast ship" speed="27.78" length="1.68" shape="10694.29,773.80 10694.14,774.11 10694.04,774.33 10693.96,774.55 10693.86,774.88"/>
    </edge>
    <edge id=":1879817671_0" function="internal">
        <lane id=":1879817671_0_0" index="0" disallow="tram rail_urban rail rail_electric rail_fast ship" speed="20.84" length="14.00" shape="10487.28,964.53 10484.29,962.98 10481.65,961.55 10479.06,959.54 10476.20,956.25"/>
    </edge>
    <edge id=":1879817671_1" function="internal">
        <lane id=":1879817671_1_0" index="0" disallow="tram rail_urban rail rail_electric rail_fast ship" speed="27.78" length="14.00" shape="10483.87,968.18 10476.20,956.25"/>
        <lane id=":1879817671_1_1" index="1" disallow="tram rail_urban rail rail_electric rail_fast ship" speed="27.78" length="14.00" shape="10481.20,969.94 10473.63,958.16"/>
        <lane id=":1879817671_1_2" index="2" disallow="tram rail_urban rail rail_electric rail_fast ship" speed="27.78" length="14.00" shape="10478.52,971.70 10471.06,960.07"/>
    </edge>
    <edge id=":1879817672_0" function="internal">
        <lane id=":1879817672_0_0" index="0" disallow="tram rail_urban rail rail_electric rail_fast ship" speed="7.32" length="12.70" shape="10466.10,953.89 10463.63,955.43 10462.48,957.73 10462.63,960.82 10464.09,964.67"/>
    </edge>
    <edge id=":1879817672_1" function="internal">
        <lane id=":1879817672_1_0" index="0" disallow="tram rail_urban rail rail_electric rail_fast ship" speed="6.84" length="12.36" shape="10466.10,953.89 10463.61,955.42 10462.66,957.62 10463.25,960.48 10465.38,964.00"/>
        <lane id=":1879817672_1_1" index="1" disallow="tram rail_urban rail rail_electric rail_fast ship" speed="6.23" length="10.03" shape="10466.10,953.89 10464.96,954.90 10464.95,956.67 10466.05,959.21 10468.26,962.51"/>
    </edge>
    <edge id=":1879817672_3" function="internal">
        <lane id=":1879817672_3_0" index="0" disallow="tram rail_urban rail rail_electric rail_fast ship" speed="3.65" length="4.67" shape="10466.10,953.89 10465.25,955.06 10465.15,955.95 10465.80,956.56 10467.20,956.90"/>
    </edge>
    <edge id=":1879817672_4" function="internal">
        <lane id=":1879817672_4_0" index="0" disallow="tram rail_urban rail rail_electric rail_fast ship" speed="25.00" length="13.83" shape="10454.48,954.84 10457.41,958.07 10460.00,960.14 10462.23,962.02 10464.09,964.67"/>
    </edge>
    <edge id=":1879817672_5" function="internal">
        <lane id=":1879817672_5_0" index="0" disallow="tram rail_urban rail rail_electric rail_fast ship" speed="27.78" length="13.88" shape="10454.48,954.84 10462.50,965.50"/>
        <lane id=":1879817672_5_1" index="1" disallow="tram rail_urban rail rail_electric rail_fast ship" speed="27.78" length="13.88" shape="10457.03,952.92 10465.38,964.00"/>
        <lane id=":1879817672_5_2" index="2" disallow="tram rail_urban rail rail_electric rail_fast ship" speed="27.78" length="13.88" shape="10459.59,950.99 10468.26,962.51"/>
    </edge>
    <edge id=":1879817672_8" function="internal">
        <lane id=":1879817672_8_0" index="0" disallow="tram rail_urban rail rail_electric rail_fast ship" speed="7.67" length="10.04" shape="10459.59,950.99 10461.99,953.92 10464.06,955.88 10465.80,956.87 10467.20,956.90"/>
    </edge>
    <edge id=":1879817674_0" function="internal">
        <lane id=":1879817674_0_0" index="0" disallow="tram rail_urban rail rail_electric rail_fast ship" speed="22.22" length="3.38" shape="10498.02,967.78 10495.86,965.18"/>
    </edge>
    <edge id=":1879817674_1" function="internal">
        <lane id=":1879817674_1_0" index="0" disallow="tram rail_urban rail rail_electric rail_fast ship" speed="17.26" length="3.51" shape="10495.64,969.91 10494.94,969.14 10494.41,968.65 10493.82,968.24 10492.92,967.72"/>
    </edge>
    <edge id=":1879817701_0" function="internal">
        <lane id=":1879817701_0_0" index="0" disallow="tram rail_urban rail rail_electric rail_fast ship" speed="9.93" length="13.33" shape="10569.79,995.32 10568.15,999.37 10566.29,1002.40 10564.22,1004.43 10561.92,1005.44"/>
    </edge>
    <edge id=":1879817701_1" function="internal">
        <lane id=":1879817701_1_0" index="0" disallow="tram rail_urban rail rail_electric rail_fast ship" speed="3.65" length="4.67" shape="10569.79,995.32 10570.17,996.72 10570.80,997.35 10571.68,997.22 10572.82,996.34"/>
    </edge>
    <edge id=":1879817701_2" function="internal">
        <lane id=":1879817701_2_0" index="0" disallow="tram rail_urban rail rail_electric rail_fast ship" speed="5.53" length="9.48" shape="10577.37,1000.73 10574.50,1001.43 10572.79,1000.93 10572.23,999.23 10572.82,996.34"/>
    </edge>
    <edge id=":1879817701_3" function="internal">
        <lane id=":1879817701_3_0" index="0" disallow="tram rail_urban rail rail_electric rail_fast ship" speed="22.22" length="16.17" shape="10577.37,1000.73 10573.67,1002.07 10569.73,1003.36 10565.74,1004.52 10561.92,1005.44"/>
    </edge>
    <edge id=":2081722937_0" function="internal">
        <lane id=":2081722937_0_0" index="0" disallow="tram rail_urban rail rail_electric rail_fast ship" speed="3.65" length="4.67" shape="9023.63,1794.42 9023.48,1795.85 9023.85,1796.67 9024.72,1796.87 9026.10,1796.45"/>
    </edge>
    <edge id=":2246662854_0" function="internal">
        <lane id=":2246662854_0_0" index="0" disallow="tram rail_urban rail rail_electric rail_fast ship" speed="3.65" length="4.67" shape="10051.69,458.78 10050.41,459.45 10049.93,460.20 10050.24,461.04 10051.35,461.96"/>
    </edge>
    <edge id=":245673500_0" function="internal">
        <lane id=":245673500_0_0" index="0" disallow="tram rail_urban rail rail_electric rail_fast ship" speed="5.33" length="6.22" shape="10169.90,599.27 10169.44,599.70 10168.30,599.75 10166.48,599.41 10164.00,598.69"/>
    </edge>
    <edge id=":245673500_1" function="internal">
        <lane id=":245673500_1_0" index="0" disallow="tram rail_urban rail rail_electric rail_fast ship" speed="13.89" length="13.75" shape="10169.90,599.27 10169.02,602.70 10167.87,605.81 10166.45,608.82 10164.77,611.96"/>
    </edge>
    <edge id=":245673500_2" function="internal">
        <lane id=":245673500_2_0" index="0" disallow="tram rail_urban rail rail_electric rail_fast ship" speed="13.89" length="5.65" shape="10169.90,599.27 10169.71,603.65 10169.87,604.90"/>
    </edge>
    <edge id=":245673500_3" function="internal">
        <lane id=":245673500_3_0" index="0" disallow="tram rail_urban rail rail_electric rail_fast ship" speed="3.65" length="2.34" shape="10169.90,599.27 10170.45,600.60 10171.15,601.15"/>
    </edge>
    <edge id=":245673500_18" function="internal">
        <lane id=":245673500_18_0" index="0" disallow="tram rail_urban rail rail_electric rail_fast ship" speed="13.89" length="13.77" shape="10169.87,604.90 10170.38,608.86 10171.50,614.05 10172.69,618.36"/>
    </edge>
    <edge id=":245673500_19" function="internal">
        <lane id=":245673500_19_0" index="0" disallow="tram rail_urban rail rail_electric rail_fast ship" speed="3.65" length="2.34" shape="10171.15,601.15 10172.02,600.92 10173.04,599.90"/>
    </edge>
    <edge id=":245673500_4" function="internal">
        <lane id=":245673500_4_0" index="0" disallow="tram rail_urban rail rail_electric rail_fast ship" speed="11.91" length="19.71" shape="10185.85,614.52 10180.03,609.21 10175.95,605.00 10173.62,601.90 10173.04,599.90"/>
    </edge>
    <edge id=":245673500_5" function="internal">
        <lane id=":245673500_5_0" index="0" disallow="tram rail_urban rail rail_electric rail_fast ship" speed="27.78" length="26.52" shape="10185.85,614.52 10179.96,608.89 10175.93,604.84 10171.40,601.67 10164.00,598.69"/>
        <lane id=":245673500_5_1" index="1" disallow="tram rail_urban rail rail_electric rail_fast ship" speed="27.78" length="26.52" shape="10183.75,616.93 10178.04,611.47 10174.13,607.55 10169.74,604.48 10162.58,601.59"/>
        <lane id=":245673500_5_2" index="2" disallow="tram rail_urban rail rail_electric rail_fast ship" speed="27.78" length="26.52" shape="10181.64,619.34 10176.11,614.05 10172.34,610.26 10168.09,607.29 10161.16,604.49"/>
    </edge>
    <edge id=":245673500_8" function="internal">
        <lane id=":245673500_8_0" index="0" disallow="tram rail_urban rail rail_electric rail_fast ship" speed="8.74" length="19.98" shape="10181.64,619.34 10175.29,614.24 10170.36,611.31 10166.86,610.55 10164.77,611.96"/>
    </edge>
    <edge id=":245673500_9" function="internal">
        <lane id=":245673500_9_0" index="0" disallow="tram rail_urban rail rail_electric rail_fast ship" speed="6.31" length="14.97" shape="10181.64,619.34 10176.65,615.40 10173.50,613.92 10172.18,614.91 10172.69,618.36"/>
    </edge>
    <edge id=":245673500_10" function="internal">
        <lane id=":245673500_10_0" index="0" disallow="tram rail_urban rail rail_electric rail_fast ship" speed="13.89" length="17.86" shape="10175.75,617.42 10174.57,613.36 10173.48,608.71 10172.84,604.03 10173.04,599.90"/>
    </edge>
    <edge id=":245673500_11" function="internal">
        <lane id=":245673500_11_0" index="0" disallow="tram rail_urban rail rail_electric rail_fast ship" speed="13.16" length="9.50" shape="10175.75,617.42 10173.46,611.63 10171.69,608.89"/>
    </edge>
    <edge id=":245673500_12" function="internal">
        <lane id=":245673500_12_0" index="0" disallow="tram rail_urban rail rail_electric rail_fast ship" speed="7.32" length="9.40" shape="10175.75,617.42 10173.20,610.96 10171.58,609.12"/>
    </edge>
    <edge id=":245673500_13" function="internal">
        <lane id=":245673500_13_0" index="0" disallow="tram rail_urban rail rail_electric rail_fast ship" speed="3.65" length="2.34" shape="10175.75,617.42 10174.64,616.51 10173.75,616.36"/>
    </edge>
    <edge id=":245673500_20" function="internal">
        <lane id=":245673500_20_0" index="0" disallow="tram rail_urban rail rail_electric rail_fast ship" speed="13.16" length="11.91" shape="10171.69,608.89 10170.50,607.06 10166.87,603.71 10162.58,601.59"/>
    </edge>
    <edge id=":245673500_21" function="internal">
        <lane id=":245673500_21_0" index="0" disallow="tram rail_urban rail rail_electric rail_fast ship" speed="7.32" length="9.19" shape="10171.58,609.12 10170.51,607.90 10167.71,608.23 10164.77,611.96"/>
    </edge>
    <edge id=":245673500_22" function="internal">
        <lane id=":245673500_22_0" index="0" disallow="tram rail_urban rail rail_electric rail_fast ship" speed="3.65" length="2.34" shape="10173.75,616.36 10173.11,616.98 10172.69,618.36"/>
    </edge>
    <edge id=":245673500_14" function="internal">
        <lane id=":245673500_14_0" index="0" disallow="tram rail_urban rail rail_electric rail_fast ship" speed="5.42" length="9.45" shape="10167.57,613.51 10168.77,612.22 10170.02,612.60 10171.33,614.64 10172.69,618.36"/>
    </edge>
    <edge id=":245673500_15" function="internal">