<?xml version="1.0" encoding="UTF-8"?>

<!-- generated on 2021-12-06 00:32:44 by Eclipse SUMO duarouter Version 1.9.2
<configuration xmlns:xsi="http://www.w3.org/2001/XMLSchema-instance" xsi:noNamespaceSchemaLocation="http://sumo.dlr.de/xsd/duarouterConfiguration.xsd">

    <input>
        <net-file value="C:\Users\saurabh\Sumo\2021-12-06-00-32-39\osm.net.xml"/>
        <route-files value="C:\Users\saurabh\Sumo\2021-12-06-00-32-39\osm.passenger.trips.xml"/>
    </input>

    <output>
        <output-file value="C:\Users\saurabh\Sumo\2021-12-06-00-32-39\osm.passenger.trips.xml.tmp"/>
        <write-trips value="true"/>
    </output>

    <time>
        <begin value="0"/>
        <end value="3600"/>
    </time>

    <report>
        <no-warnings value="true"/>
        <ignore-errors value="true"/>
        <no-step-log value="true"/>
    </report>

</configuration>
-->

<routes xmlns:xsi="http://www.w3.org/2001/XMLSchema-instance" xsi:noNamespaceSchemaLocation="http://sumo.dlr.de/xsd/routes_file.xsd">
    <vType id="veh_passenger" vClass="passenger"/>
    <trip id="veh0" type="veh_passenger" depart="0.00" departLane="best" departSpeed="max" from="177566523#0" to="-622415793#2"/>
    <trip id="veh1" type="veh_passenger" depart="9.37" departLane="best" departSpeed="max" from="273833832#0" to="273833832#2"/>
    <trip id="veh3" type="veh_passenger" depart="28.10" departLane="best" from="-622415793#1" to="177566559#4"/>
    <trip id="veh4" type="veh_passenger" depart="37.47" departLane="best" from="366913700#2" to="273833832#3"/>
    <trip id="veh5" type="veh_passenger" depart="46.83" departLane="best" departSpeed="max" from="177566523#0" to="-52663744#0"/>
    <trip id="veh7" type="veh_passenger" depart="65.57" departLane="best" from="366913700#3" to="273833832#5"/>
    <trip id="veh8" type="veh_passenger" depart="74.93" departLane="best" from="177566558#6" to="622415793#2"/>
    <trip id="veh9" type="veh_passenger" depart="84.30" departLane="best" from="177566523#1-AddedOnRampEdge" to="177566559#1"/>
    <trip id="veh10" type="veh_passenger" depart="93.67" departLane="best" from="439272706#1" to="177566559#4"/>
    <trip id="veh11" type="veh_passenger" depart="103.03" departLane="best" departSpeed="max" from="273833832#0" to="-22843276#1"/>
    <trip id="veh14" type="veh_passenger" depart="131.13" departLane="best" from="22843127#0" to="177566523#7"/>
    <trip id="veh15" type="veh_passenger" depart="140.50" departLane="best" from="177566523#1-AddedOnRampEdge" to="-622415793#0"/>
    <trip id="veh16" type="veh_passenger" depart="149.87" departLane="best" departSpeed="max" from="177566523#0" to="547023629#0"/>
    <trip id="veh18" type="veh_passenger" depart="168.60" departLane="best" from="-52663744#2" to="273833832#5"/>
    <trip id="veh19" type="veh_passenger" depart="177.97" departLane="best" from="-52663744#1" to="177566523#8"/>
    <trip id="veh20" type="veh_passenger" depart="187.34" departLane="best" from="366913701#4" to="273833832#5"/>
    <trip id="veh21" type="veh_passenger" depart="196.70" departLane="best" departSpeed="max" from="177566523#0" to="177566523#1"/>
    <trip id="veh22" type="veh_passenger" depart="206.07" departLane="best" from="52514845#0" to="177566523#4"/>
    <trip id="veh23" type="veh_passenger" depart="215.44" departLane="best" from="22843276#0" to="177566523#8"/>
    <trip id="veh24" type="veh_passenger" depart="224.80" departLane="best" from="52663746" to="177566556#0"/>
    <trip id="veh25" type="veh_passenger" depart="234.17" departLane="best" departSpeed="max" from="177566523#0" to="-992408934"/>
    <trip id="veh27" type="veh_passenger" depart="252.90" departLane="best" departSpeed="max" from="177566572#0" to="52514846#1"/>
    <trip id="veh28" type="veh_passenger" depart="262.27" departLane="best" from="177566523#4" to="-622415793#1"/>
    <trip id="veh30" type="veh_passenger" depart="281.00" departLane="best" from="366913700#0" to="177566523#8"/>
    <trip id="veh31" type="veh_passenger" depart="290.37" departLane="best" from="-366913700#2" to="177566523#8"/>
    <trip id="veh33" type="veh_passenger" depart="309.10" departLane="best" from="-185467797#1" to="273833832#5"/>
    <trip id="veh34" type="veh_passenger" depart="318.47" departLane="best" departSpeed="max" from="273833832#0" to="177566558#7"/>
    <trip id="veh35" type="veh_passenger" depart="327.84" departLane="best" departSpeed="max" from="177566523#0" to="22843134"/>
    <trip id="veh36" type="veh_passenger" depart="337.20" departLane="best" from="-366913701#6" to="177566523#8"/>
    <trip id="veh37" type="veh_passenger" depart="346.57" departLane="best" from="177566523#7" to="622415769#1"/>
    <trip id="veh38" type="veh_passenger" depart="355.94" departLane="best" from="177566558#1" to="-52664437#1"/>
    <trip id="veh39" type="veh_passenger" depart="365.30" departLane="best" departSpeed="max" from="177566523#0" to="22843134"/>
    <trip id="veh40" type="veh_passenger" depart="374.67" departLane="best" from="177566572#1" to="-52663744#0"/>
    <trip id="veh41" type="veh_passenger" depart="384.04" departLane="best" from="-22843125" to="52664437#1"/>
    <trip id="veh42" type="veh_passenger" depart="393.40" departLane="best" departSpeed="max" from="177566523#0" to="-366913700#2"/>
    <trip id="veh43" type="veh_passenger" depart="402.77" departLane="best" from="52514845#0" to="547023629#2"/>
    <trip id="veh44" type="veh_passenger" depart="412.14" departLane="best" from="-366913701#1" to="177566556#2"/>
    <trip id="veh45" type="veh_passenger" depart="421.50" departLane="best" from="-366913700#3" to="273833832#5"/>
    <trip id="veh46" type="veh_passenger" depart="430.87" departLane="best" from="273833832#3" to="-52511313#1"/>
    <trip id="veh47" type="veh_passenger" depart="440.24" departLane="best" departSpeed="max" from="177566523#0" to="52511312"/>
    <trip id="veh48" type="veh_passenger" depart="449.60" departLane="best" from="177566523#5" to="-622415793#0"/>
    <trip id="veh49" type="veh_passenger" depart="458.97" departLane="best" from="177566558#7" to="273833832#5"/>
    <trip id="veh50" type="veh_passenger" depart="468.34" departLane="best" from="992408934" to="22843276#1"/>
    <trip id="veh51" type="veh_passenger" depart="477.70" departLane="best" from="-439272706#1" to="-622415793#2"/>
    <trip id="veh52" type="veh_passenger" depart="487.07" departLane="best" departSpeed="max" from="177566523#0" to="177566559#4"/>
    <trip id="veh53" type="veh_passenger" depart="496.44" departLane="best" from="439272706#0" to="-366913700#4"/>
    <trip id="veh54" type="veh_passenger" depart="505.81" departLane="best" from="-622415769#1" to="-52514845#0"/>
    <trip id="veh55" type="veh_passenger" depart="515.17" departLane="best" from="547023629#1" to="177566559#4"/>
    <trip id="veh57" type="veh_passenger" depart="533.91" departLane="best" from="366913700#3" to="-547023629#1"/>
    <trip id="veh58" type="veh_passenger" depart="543.27" departLane="best" from="-366913701#4" to="177566523#8"/>
    <trip id="veh59" type="veh_passenger" depart="552.64" departLane="best" from="177566523#5" to="177566556#2"/>
    <trip id="veh60" type="veh_passenger" depart="562.01" departLane="best" departSpeed="max" from="273833832#0" to="273833832#2"/>
    <trip id="veh61" type="veh_passenger" depart="571.37" departLane="best" from="723552318#1" to="-366913701#4"/>
    <trip id="veh62" type="veh_passenger" depart="580.74" departLane="best" from="177566523#4" to="177566523#5"/>
    <trip id="veh63" type="veh_passenger" depart="590.11" departLane="best" from="-547023629#0" to="177566523#8"/>
    <trip id="veh64" type="veh_passenger" depart="599.47" departLane="best" from="-723552318#2" to="52664437#0"/>
    <trip id="veh66" type="veh_passenger" depart="618.21" departLane="best" from="992408934" to="366913701#2"/>
    <trip id="veh67" type="veh_passenger" depart="627.57" departLane="best" from="622415793#2" to="52664437#0"/>
    <trip id="veh68" type="veh_passenger" depart="636.94" departLane="best" from="177566556#0" to="-622415793#0"/>
    <trip id="veh69" type="veh_passenger" depart="646.31" departLane="best" from="177566523#4" to="-366913700#2"/>
    <trip id="veh70" type="veh_passenger" depart="655.67" departLane="best" from="177566523#7" to="177566523#8"/>
    <trip id="veh71" type="veh_passenger" depart="665.04" departLane="best" from="622415793#0" to="992408934"/>
    <trip id="veh72" type="veh_passenger" depart="674.41" departLane="best" from="177566559#1" to="273833832#5"/>
    <trip id="veh73" type="veh_passenger" depart="683.77" departLane="best" from="-52514846#1" to="177566523#3"/>
    <trip id="veh74" type="veh_passenger" depart="693.14" departLane="best" from="622415793#2" to="177566559#4"/>
    <trip id="veh75" type="veh_passenger" depart="702.51" departLane="best" from="177566558#7" to="273833832#5"/>
    <trip id="veh76" type="veh_passenger" depart="711.87" departLane="best" from="-366913700#1" to="177566559#4"/>
    <trip id="veh77" type="veh_passenger" depart="721.24" departLane="best" from="177566558#1" to="366913701#5"/>
    <trip id="veh78" type="veh_passenger" depart="730.61" departLane="best" from="-366913701#0" to="-547023629#0"/>
    <trip id="veh79" type="veh_passenger" depart="739.97" departLane="best" departSpeed="max" from="177566572#0" to="273833832#2"/>
    <trip id="veh81" type="veh_passenger" depart="758.71" departLane="best" departSpeed="max" from="177566572#0" to="185467797#1"/>
    <trip id="veh82" type="veh_passenger" depart="768.07" departLane="best" from="177566523#5" to="177566559#4"/>
    <trip id="veh83" type="veh_passenger" depart="777.44" departLane="best" from="-699397460" to="177566523#8"/>
    <trip id="veh84" type="veh_passenger" depart="786.81" departLane="best" departSpeed="max" from="273833832#0" to="177566523#3"/>
    <trip id="veh85" type="veh_passenger" depart="796.17" departLane="best" from="-366913700#4" to="177566556#0"/>
    <trip id="veh86" type="veh_passenger" depart="805.54" departLane="best" from="-366913700#4" to="-622415793#0"/>
    <trip id="veh87" type="veh_passenger" depart="814.91" departLane="best" departSpeed="max" from="177566523#0" to="547023629#0"/>
    <trip id="veh88" type="veh_passenger" depart="824.28" departLane="best" from="52514845#0" to="52511313#1"/>
    <trip id="veh89" type="veh_passenger" depart="833.64" departLane="best" from="177566523#1-AddedOnRampEdge" to="-52663744#1"/>
    <trip id="veh90" type="veh_passenger" depart="843.01" departLane="best" from="366913701#3" to="273833832#4"/>
    <trip id="veh91" type="veh_passenger" depart="852.38" departLane="best" from="22843276#0" to="-185467797#0"/>
    <trip id="veh92" type="veh_passenger" depart="861.74" departLane="best" from="366913700#4" to="177566523#3"/>
    <trip id="veh93" type="veh_passenger" depart="871.11" departLane="best" departSpeed="max" from="273833832#0" to="547023629#1"/>
    <trip id="veh95" type="veh_passenger" depart="889.84" departLane="best" from="-366913701#5" to="177566559#1"/>
    <trip id="veh96" type="veh_passenger" depart="899.21" departLane="best" departSpeed="max" from="273833832#0" to="-622415769#0"/>
    <trip id="veh98" type="veh_passenger" depart="917.94" departLane="best" from="177566556#0" to="52663744#0"/>
    <trip id="veh99" type="veh_passenger" depart="927.31" departLane="best" from="-104902793" to="273833832#5"/>
    <trip id="veh101" type="veh_passenger" depart="946.04" departLane="best" departSpeed="max" from="273833832#0" to="177566559#1"/>
    <trip id="veh102" type="veh_passenger" depart="955.41" departLane="best" from="366913701#3" to="177566559#4"/>
    <trip id="veh103" type="veh_passenger" depart="964.78" departLane="best" from="-52514846#0" to="-52511313#1"/>
    <trip id="veh104" type="veh_passenger" depart="974.14" departLane="best" departSpeed="max" from="177566523#0" to="52514846#1"/>
    <trip id="veh106" type="veh_passenger" depart="992.88" departLane="best" from="-723552318#2" to="-366913701#5"/>
    <trip id="veh107" type="veh_passenger" depart="1002.24" departLane="best" from="273833832#4" to="52514845#0"/>
    <trip id="veh108" type="veh_passenger" depart="1011.61" departLane="best" from="177566523#4" to="185467797#1"/>
    <trip id="veh109" type="veh_passenger" depart="1020.98" departLane="best" from="-52514846#1" to="52664437#1"/>
    <trip id="veh110" type="veh_passenger" depart="1030.34" departLane="best" from="439272706#1" to="672840525"/>
    <trip id="veh111" type="veh_passenger" depart="1039.71" departLane="best" from="-22843127#0" to="273833832#5"/>
    <trip id="veh112" type="veh_passenger" depart="1049.08" departLane="best" departSpeed="max" from="177566523#0" to="52664437#1"/>
    <trip id="veh115" type="veh_passenger" depart="1077.18" departLane="best" from="273833832#4" to="-366913701#6"/>
    <trip id="veh116" type="veh_passenger" depart="1086.54" departLane="best" from="52511313#1" to="366913701#6"/>
    <trip id="veh117" type="veh_passenger" depart="1095.91" departLane="best" from="177566523#7" to="177566523#3"/>
    <trip id="veh118" type="veh_passenger" depart="1105.28" departLane="best" from="366913700#0" to="-672840525"/>
    <trip id="veh121" type="veh_passenger" depart="1133.38" departLane="best" from="22843127#1" to="177566523#8"/>
    <trip id="veh123" type="veh_passenger" depart="1152.11" departLane="best" from="622415793#2" to="-52664437#1"/>
    <trip id="veh125" type="veh_passenger" depart="1170.85" departLane="best" from="-366913701#6" to="177566523#8"/>
    <trip id="veh126" type="veh_passenger" depart="1180.21" departLane="best" departSpeed="max" from="273833832#0" to="177566523#4"/>
    <trip id="veh127" type="veh_passenger" depart="1189.58" departLane="best" from="177566572#1" to="177566558#2"/>
    <trip id="veh128" type="veh_passenger" depart="1198.95" departLane="best" from="177566523#3" to="177566559#4"/>
    <trip id="veh129" type="veh_passenger" depart="1208.31" departLane="best" from="-104902793" to="52664437#0"/>
    <trip id="veh130" type="veh_passenger" depart="1217.68" departLane="best" from="177566558#7" to="273833832#5"/>
    <trip id="veh131" type="veh_passenger" depart="1227.05" departLane="best" from="177566523#1-AddedOnRampEdge" to="-366913700#4"/>
    <trip id="veh132" type="veh_passenger" depart="1236.41" departLane="best" departSpeed="max" from="273833832#0" to="177566523#5"/>
    <trip id="veh133" type="veh_passenger" depart="1245.78" departLane="best" departSpeed="max" from="177566523#0" to="366913701#4"/>
    <trip id="veh134" type="veh_passenger" depart="1255.15" departLane="best" departSpeed="max" from="273833832#0" to="177566523#3"/>
    <trip id="veh135" type="veh_passenger" depart="1264.51" departLane="best" departSpeed="max" from="177566523#0" to="177566523#8"/>
    <trip id="veh136" type="veh_passenger" depart="1273.88" departLane="best" from="-52511312" to="177566523#8"/>
    <trip id="veh137" type="veh_passenger" depart="1283.25" departLane="best" from="547023629#1" to="273833832#2"/>
    <trip id="veh138" type="veh_passenger" depart="1292.61" departLane="best" from="52663744#0" to="185467797#0"/>
    <trip id="veh139" type="veh_passenger" depart="1301.98" departLane="best" departSpeed="max" from="177566523#0" to="177566559#0"/>
    <trip id="veh141" type="veh_passenger" depart="1320.71" departLane="best" from="177566523#5" to="177566559#4"/>
    <trip id="veh142" type="veh_passenger" depart="1330.08" departLane="best" from="22843276#0" to="177566556#1"/>
    <trip id="veh144" type="veh_passenger" depart="1348.81" departLane="best" from="22843125" to="177566523#5"/>
    <trip id="veh145" type="veh_passenger" depart="1358.18" departLane="best" from="366913701#0" to="273833832#5"/>
    <trip id="veh146" type="veh_passenger" depart="1367.55" departLane="best" departSpeed="max" from="273833832#0" to="-622415793#2"/>
    <trip id="veh147" type="veh_passenger" depart="1376.91" departLane="best" from="-547023629#2" to="-22843127#0"/>
    <trip id="veh148" type="veh_passenger" depart="1386.28" departLane="best" from="-723552318#1" to="177566556#2"/>
    <trip id="veh149" type="veh_passenger" depart="1395.65" departLane="best" from="366913701#6" to="-366913700#4"/>
    <trip id="veh150" type="veh_passenger" depart="1405.01" departLane="best" from="22843276#1" to="-185467797#0"/>
    <trip id="veh151" type="veh_passenger" depart="1414.38" departLane="best" from="273833832#2" to="273833832#5"/>
    <trip id="veh152" type="veh_passenger" depart="1423.75" departLane="best" from="-366913701#5" to="177566523#8"/>
    <trip id="veh153" type="veh_passenger" depart="1433.11" departLane="best" from="177566558#3" to="-366913700#0"/>
    <trip id="veh154" type="veh_passenger" depart="1442.48" departLane="best" from="-723552318#2" to="366913701#5"/>
    <trip id="veh155" type="veh_passenger" depart="1451.85" departLane="best" departSpeed="max" from="273833832#0" to="723552318#1"/>
    <trip id="veh156" type="veh_passenger" depart="1461.22" departLane="best" departSpeed="max" from="177566572#0" to="622415769#0"/>
    <trip id="veh158" type="veh_passenger" depart="1479.95" departLane="best" from="52514846#1" to="273833832#5"/>
    <trip id="veh160" type="veh_passenger" depart="1498.68" departLane="best" from="273833832#3" to="177566558#4"/>
    <trip id="veh163" type="veh_passenger" depart="1526.78" departLane="best" departSpeed="max" from="177566523#0" to="177566523#4"/>
    <trip id="veh164" type="veh_passenger" depart="1536.15" departLane="best" departSpeed="max" from="273833832#0" to="-366913700#3"/>
    <trip id="veh165" type="veh_passenger" depart="1545.52" departLane="best" from="177566523#4" to="177566558#8"/>
    <trip id="veh166" type="veh_passenger" depart="1554.88" departLane="best" from="177566523#5" to="52663744#0"/>
    <trip id="veh167" type="veh_passenger" depart="1564.25" departLane="best" departSpeed="max" from="177566572#0" to="273833832#3"/>
    <trip id="veh168" type="veh_passenger" depart="1573.62" departLane="best" from="366913701#6" to="622415769#1"/>
    <trip id="veh169" type="veh_passenger" depart="1582.98" departLane="best" from="177566523#5" to="273833832#5"/>
    <trip id="veh171" type="veh_passenger" depart="1601.72" departLane="best" departSpeed="max" from="177566523#0" to="273833832#2"/>
    <trip id="veh172" type="veh_passenger" depart="1611.08" departLane="best" from="177566523#4" to="-52663744#2"/>
    <trip id="veh173" type="veh_passenger" depart="1620.45" departLane="best" from="177566523#7" to="-52511313#1"/>
    <trip id="veh174" type="veh_passenger" depart="1629.82" departLane="best" from="177566523#3" to="177566559#3"/>
    <trip id="veh175" type="veh_passenger" depart="1639.18" departLane="best" from="-52514845#0" to="177566556#1"/>
    <trip id="veh176" type="veh_passenger" depart="1648.55" departLane="best" from="-366913700#0" to="177566523#8"/>
    <trip id="veh177" type="veh_passenger" depart="1657.92" departLane="best" from="-622415769#1" to="177566523#5"/>
    <trip id="veh178" type="veh_passenger" depart="1667.28" departLane="best" from="273833832#3" to="177566523#8"/>
    <trip id="veh179" type="veh_passenger" depart="1676.65" departLane="best" from="-723552318#2" to="-366913701#1"/>
    <trip id="veh180" type="veh_passenger" depart="1686.02" departLane="best" from="-22843125" to="177566558#8"/>
    <trip id="veh181" type="veh_passenger" depart="1695.38" departLane="best" from="22843134" to="273833832#5"/>
    <trip id="veh182" type="veh_passenger" depart="1704.75" departLane="best" from="22843276#0" to="273833832#5"/>
    <trip id="veh183" type="veh_passenger" depart="1714.12" departLane="best" from="-22843125" to="-52663744#0"/>
    <trip id="veh184" type="veh_passenger" depart="1723.48" departLane="best" departSpeed="max" from="273833832#0" to="273833832#5"/>
    <trip id="veh187" type="veh_passenger" depart="1751.58" departLane="best" from="-366913701#6" to="-22843127#0"/>
    <trip id="veh188" type="veh_passenger" depart="1760.95" departLane="best" departSpeed="max" from="177566523#0" to="273833832#2"/>
    <trip id="veh189" type="veh_passenger" depart="1770.32" departLane="best" from="622415793#0" to="177566523#8"/>
    <trip id="veh190" type="veh_passenger" depart="1779.68" departLane="best" departSpeed="max" from="273833832#0" to="-366913701#0"/>
    <trip id="veh192" type="veh_passenger" depart="1798.42" departLane="best" from="-366913701#4" to="273833832#5"/>
    <trip id="veh194" type="veh_passenger" depart="1817.15" departLane="best" from="-439272706#1" to="699397460"/>
    <trip id="veh195" type="veh_passenger" depart="1826.52" departLane="best" from="273833832#4" to="177566523#6"/>
    <trip id="veh196" type="veh_passenger" depart="1835.89" departLane="best" from="177566523#5" to="177566523#7"/>
    <trip id="veh197" type="veh_passenger" depart="1845.25" departLane="best" from="177566558#2" to="177566523#6"/>
    <trip id="veh198" type="veh_passenger" depart="1854.62" departLane="best" from="366913701#6" to="366913701#0"/>
    <trip id="veh199" type="veh_passenger" depart="1863.99" departLane="best" from="-366913701#5" to="622415793#0"/>
    <trip id="veh200" type="veh_passenger" depart="1873.35" departLane="best" from="22843127#0" to="366913701#1"/>
    <trip id="veh201" type="veh_passenger" depart="1882.72" departLane="best" departSpeed="max" from="273833832#0" to="622415793#1"/>
    <trip id="veh202" type="veh_passenger" depart="1892.09" departLane="best" departSpeed="max" from="177566523#0" to="366913700#2"/>
    <trip id="veh203" type="veh_passenger" depart="1901.45" departLane="best" from="177566558#7" to="177566556#2"/>
    <trip id="veh204" type="veh_passenger" depart="1910.82" departLane="best" from="177566523#6" to="273833832#5"/>
    <trip id="veh205" type="veh_passenger" depart="1920.19" departLane="best" departSpeed="max" from="177566523#0" to="366913701#5"/>
    <trip id="veh206" type="veh_passenger" depart="1929.55" departLane="best" from="52514845#0" to="-723552318#2"/>
    <trip id="veh208" type="veh_passenger" depart="1948.29" departLane="best" from="-622415769#1" to="366913700#0"/>
    <trip id="veh209" type="veh_passenger" depart="1957.65" departLane="best" departSpeed="max" from="177566523#0" to="52514845#0"/>
    <trip id="veh211" type="veh_passenger" depart="1976.39" departLane="best" from="-185467797#0" to="622415769#0"/>
    <trip id="veh212" type="veh_passenger" depart="1985.75" departLane="best" from="-366913701#1" to="273833832#5"/>
    <trip id="veh213" type="veh_passenger" depart="1995.12" departLane="best" from="177566556#0" to="273833832#5"/>
    <trip id="veh214" type="veh_passenger" depart="2004.49" departLane="best" departSpeed="max" from="273833832#0" to="22843276#0"/>
    <trip id="veh216" type="veh_passenger" depart="2023.22" departLane="best" departSpeed="max" from="273833832#0" to="177566523#3"/>
    <trip id="veh217" type="veh_passenger" depart="2032.59" departLane="best" from="177566558#5" to="177566523#8"/>
    <trip id="veh219" type="veh_passenger" depart="2051.32" departLane="best" from="-723552318#2" to="-52511312"/>
    <trip id="veh221" type="veh_passenger" depart="2070.05" departLane="best" from="177566558#6" to="273833832#5"/>
    <trip id="veh222" type="veh_passenger" depart="2079.42" departLane="best" from="-52664437#1" to="-622415793#1"/>
    <trip id="veh223" type="veh_passenger" depart="2088.79" departLane="best" from="177566556#0" to="273833832#5"/>
    <trip id="veh224" type="veh_passenger" depart="2098.15" departLane="best" departSpeed="max" from="177566523#0" to="-366913701#5"/>
    <trip id="veh225" type="veh_passenger" depart="2107.52" departLane="best" from="-52664437#0" to="-185467797#1"/>
    <trip id="veh226" type="veh_passenger" depart="2116.89" departLane="best" from="672840525" to="177566559#1"/>
    <trip id="veh227" type="veh_passenger" depart="2126.26" departLane="best" departSpeed="max" from="273833832#0" to="-52511313#1"/>
    <trip id="veh228" type="veh_passenger" depart="2135.62" departLane="best" from="52511312" to="177566556#2"/>
    <trip id="veh229" type="veh_passenger" depart="2144.99" departLane="best" from="52511313#1" to="177566559#4"/>
    <trip id="veh230" type="veh_passenger" depart="2154.36" departLane="best" from="177566523#8" to="177566523#8"/>
    <trip id="veh231" type="veh_passenger" depart="2163.72" departLane="best" from="-52664437#1" to="-366913700#0"/>
    <trip id="veh232" type="veh_passenger" depart="2173.09" departLane="best" from="547023629#2" to="177566556#2"/>
    <trip id="veh233" type="veh_passenger" depart="2182.46" departLane="best" from="366913701#0" to="177566523#8"/>
    <trip id="veh234" type="veh_passenger" depart="2191.82" departLane="best" from="177566559#2" to="177566523#3"/>
    <trip id="veh236" type="veh_passenger" depart="2210.56" departLane="best" from="366913700#0" to="-672840525"/>
    <trip id="veh237" type="veh_passenger" depart="2219.92" departLane="best" from="177566558#4" to="177566523#8"/>
    <trip id="veh239" type="veh_passenger" depart="2238.66" departLane="best" departSpeed="max" from="273833832#0" to="547023629#2"/>
    <trip id="veh240" type="veh_passenger" depart="2248.02" departLane="best" from="-622415769#0" to="-622415793#0"/>
    <trip id="veh241" type="veh_passenger" depart="2257.39" departLane="best" from="-52663746" to="-366913701#0"/>
    <trip id="veh242" type="veh_passenger" depart="2266.76" departLane="best" from="-104902793" to="177566523#8"/>
    <trip id="veh243" type="veh_passenger" depart="2276.12" departLane="best" departSpeed="max" from="177566572#0" to="177566523#1-AddedOnRampEdge"/>
    <trip id="veh244" type="veh_passenger" depart="2285.49" departLane="best" departSpeed="max" from="273833832#0" to="52664437#0"/>
    <trip id="veh245" type="veh_passenger" depart="2294.86" departLane="best" from="22843276#1" to="547023629#0"/>
    <trip id="veh246" type="veh_passenger" depart="2304.22" departLane="best" from="177566523#5" to="177566559#0"/>
    <trip id="veh247" type="veh_passenger" depart="2313.59" departLane="best" from="22843134" to="52663744#1"/>
    <trip id="veh248" type="veh_passenger" depart="2322.96" departLane="best" from="-52663744#1" to="177566523#3"/>
    <trip id="veh249" type="veh_passenger" depart="2332.32" departLane="best" from="273833832#2" to="177566559#4"/>
    <trip id="veh250" type="veh_passenger" depart="2341.69" departLane="best" departSpeed="max" from="177566523#0" to="-52511312"/>
    <trip id="veh251" type="veh_passenger" depart="2351.06" departLane="best" departSpeed="max" from="273833832#0" to="273833832#3"/>
    <trip id="veh253" type="veh_passenger" depart="2369.79" departLane="best" from="-22843276#0" to="177566523#8"/>
    <trip id="veh254" type="veh_passenger" depart="2379.16" departLane="best" departSpeed="max" from="177566523#0" to="-992408934"/>
    <trip id="veh255" type="veh_passenger" depart="2388.52" departLane="best" from="366913701#3" to="177566559#4"/>
    <trip id="veh257" type="veh_passenger" depart="2407.26" departLane="best" from="-22843276#0" to="273833832#5"/>
    <trip id="veh258" type="veh_passenger" depart="2416.62" departLane="best" from="52663746" to="-52664437#1"/>
    <trip id="veh259" type="veh_passenger" depart="2425.99" departLane="best" departSpeed="max" from="177566572#0" to="22843127#1"/>
    <trip id="veh261" type="veh_passenger" depart="2444.73" departLane="best" from="177566523#1" to="177566523#5"/>
    <trip id="veh262" type="veh_passenger" depart="2454.09" departLane="best" departSpeed="max" from="273833832#0" to="366913701#6"/>
    <trip id="veh263" type="veh_passenger" depart="2463.46" departLane="best" departSpeed="max" from="177566523#0" to="273833832#3"/>
    <trip id="veh264" type="veh_passenger" depart="2472.83" departLane="best" departSpeed="max" from="177566523#0" to="547023629#2"/>
    <trip id="veh265" type="veh_passenger" depart="2482.19" departLane="best" from="177566523#7" to="177566523#4"/>
    <trip id="veh266" type="veh_passenger" depart="2491.56" departLane="best" departSpeed="max" from="177566523#0" to="622415793#2"/>
    <trip id="veh268" type="veh_passenger" depart="2510.29" departLane="best" from="177566558#7" to="177566523#8"/>
    <trip id="veh269" type="veh_passenger" depart="2519.66" departLane="best" from="-52664437#1" to="177566523#7"/>
    <trip id="veh271" type="veh_passenger" depart="2538.39" departLane="best" from="273833832#3" to="-622415769#0"/>
    <trip id="veh272" type="veh_passenger" depart="2547.76" departLane="best" from="177566559#0" to="52664437#1"/>
    <trip id="veh273" type="veh_passenger" depart="2557.13" departLane="best" from="177566523#6" to="273833832#3"/>
    <trip id="veh274" type="veh_passenger" depart="2566.49" departLane="best" from="-439272706#1" to="622415793#2"/>
    <trip id="veh275" type="veh_passenger" depart="2575.86" departLane="best" from="177566572#1" to="-723552318#1"/>
    <trip id="veh276" type="veh_passenger" depart="2585.23" departLane="best" from="723552318#2" to="52663744#2"/>
    <trip id="veh280" type="veh_passenger" depart="2622.69" departLane="best" departSpeed="max" from="177566523#0" to="366913701#2"/>
    <trip id="veh281" type="veh_passenger" depart="2632.06" departLane="best" from="177566559#0" to="177566523#8"/>
    <trip id="veh284" type="veh_passenger" depart="2660.16" departLane="best" from="177566558#2" to="366913700#4"/>
    <trip id="veh285" type="veh_passenger" depart="2669.53" departLane="best" departSpeed="max" from="177566523#0" to="177566523#3"/>
    <trip id="veh286" type="veh_passenger" depart="2678.89" departLane="best" departSpeed="max" from="177566572#0" to="992408934"/>
    <trip id="veh288" type="veh_passenger" depart="2697.63" departLane="best" from="177566523#7" to="177566523#4"/>
    <trip id="veh289" type="veh_passenger" depart="2706.99" departLane="best" from="273833832#4" to="-22843276#1"/>
    <trip id="veh290" type="veh_passenger" depart="2716.36" departLane="best" from="273833832#2" to="273833832#4"/>