<?xml version="1.0" encoding="UTF-8"?>

<!-- generated on 2021-12-17 02:50:40 by Eclipse SUMO duarouter Version 1.9.2
<configuration xmlns:xsi="http://www.w3.org/2001/XMLSchema-instance" xsi:noNamespaceSchemaLocation="http://sumo.dlr.de/xsd/duarouterConfiguration.xsd">

    <input>
        <net-file value="C:\Users\saurabh\Sumo\2021-12-17-02-50-37\osm.net.xml"/>
        <route-files value="C:\Users\saurabh\Sumo\2021-12-17-02-50-37\osm.passenger.trips.xml"/>
    </input>

    <output>
        <output-file value="C:\Users\saurabh\Sumo\2021-12-17-02-50-37\osm.passenger.trips.xml.tmp"/>
        <write-trips value="true"/>
    </output>

    <time>
        <begin value="0"/>
        <end value="3600"/>
    </time>

    <report>
        <no-warnings value="true"/>
        <ignore-errors value="true"/>
        <no-step-log value="true"/>
    </report>

</configuration>
-->

<routes xmlns:xsi="http://www.w3.org/2001/XMLSchema-instance" xsi:noNamespaceSchemaLocation="http://sumo.dlr.de/xsd/routes_file.xsd">
    <vType id="veh_passenger" vClass="passenger"/>
    <trip id="veh0" type="veh_passenger" depart="0.00" departLane="best" departSpeed="max" from="273833832#0" to="-185467797#2"/>
    <trip id="veh1" type="veh_passenger" depart="4.10" departLane="best" departSpeed="max" from="273833832#0" to="273833832#4"/>
    <trip id="veh2" type="veh_passenger" depart="8.20" departLane="best" from="177566523#3" to="-185467797#4"/>
    <trip id="veh3" type="veh_passenger" depart="12.29" departLane="best" from="-185467797#2" to="-547023629#1"/>
    <trip id="veh4" type="veh_passenger" depart="16.39" departLane="best" departSpeed="max" from="273833832#0" to="177566559#4"/>
    <trip id="veh5" type="veh_passenger" depart="20.49" departLane="best" from="-622415769#1" to="185467797#0"/>
    <trip id="veh6" type="veh_passenger" depart="24.59" departLane="best" from="366913700#3" to="273833832#6"/>
    <trip id="veh7" type="veh_passenger" depart="28.69" departLane="best" departSpeed="max" from="177566523#0" to="-52514846#3"/>
    <trip id="veh8" type="veh_passenger" depart="32.78" departLane="best" from="366913700#3" to="273833832#6"/>
    <trip id="veh9" type="veh_passenger" depart="36.88" departLane="best" from="177566558#1" to="692042225"/>
    <trip id="veh10" type="veh_passenger" depart="40.98" departLane="best" departSpeed="max" from="177566523#0" to="177566559#5"/>
    <trip id="veh11" type="veh_passenger" depart="45.08" departLane="best" from="366913701#4" to="22843127#1"/>
    <trip id="veh12" type="veh_passenger" depart="49.18" departLane="best" from="52514845#0" to="177566559#5"/>
    <trip id="veh13" type="veh_passenger" depart="53.28" departLane="best" departSpeed="max" from="273833832#0" to="-22843127#1"/>
    <trip id="veh14" type="veh_passenger" depart="57.37" departLane="best" from="-622415793#1" to="177566523#3"/>
    <trip id="veh15" type="veh_passenger" depart="61.47" departLane="best" from="-366913700#4" to="-692042225"/>
    <trip id="veh16" type="veh_passenger" depart="65.57" departLane="best" from="-366913701#5" to="177566523#2"/>
    <trip id="veh17" type="veh_passenger" depart="69.67" departLane="best" departSpeed="max" from="177566523#0" to="-622415769#0"/>
    <trip id="veh18" type="veh_passenger" depart="73.77" departLane="best" departSpeed="max" from="273833832#0" to="215261251#0"/>
    <trip id="veh19" type="veh_passenger" depart="77.86" departLane="best" from="-52663744#0" to="273833832#6"/>
    <trip id="veh20" type="veh_passenger" depart="81.96" departLane="best" from="-52514847#0" to="177566523#8"/>
    <trip id="veh22" type="veh_passenger" depart="90.16" departLane="best" from="366913701#8" to="273833832#6"/>
    <trip id="veh23" type="veh_passenger" depart="94.26" departLane="best" departSpeed="max" from="177566523#0" to="104902792#2"/>
    <trip id="veh24" type="veh_passenger" depart="98.35" departLane="best" from="52663744#3" to="177566556#0"/>
    <trip id="veh25" type="veh_passenger" depart="102.45" departLane="best" from="-723552318#2" to="-723323006#2"/>
    <trip id="veh26" type="veh_passenger" depart="106.55" departLane="best" from="177566566" to="52514847#0"/>
    <trip id="veh27" type="veh_passenger" depart="110.65" departLane="best" departSpeed="max" from="177566523#0" to="-622415793#1"/>
    <trip id="veh28" type="veh_passenger" depart="114.75" departLane="best" from="-366913701#2" to="-22843127#1"/>
    <trip id="veh29" type="veh_passenger" depart="118.84" departLane="best" from="-366913701#7" to="22843276#0"/>
    <trip id="veh30" type="veh_passenger" depart="122.94" departLane="best" from="273833832#5" to="177566523#8"/>
    <trip id="veh31" type="veh_passenger" depart="127.04" departLane="best" from="-366913700#0" to="177566523#8"/>
    <trip id="veh32" type="veh_passenger" depart="131.14" departLane="best" from="-104902792#2" to="273833832#6"/>
    <trip id="veh33" type="veh_passenger" depart="135.24" departLane="best" departSpeed="max" from="273833832#0" to="177566559#1"/>
    <trip id="veh35" type="veh_passenger" depart="143.43" departLane="best" from="-366913701#8" to="177566523#8"/>
    <trip id="veh36" type="veh_passenger" depart="147.53" departLane="best" from="177566523#6" to="622415769#1"/>
    <trip id="veh37" type="veh_passenger" depart="151.63" departLane="best" departSpeed="max" from="177566558#0" to="-52663746"/>
    <trip id="veh38" type="veh_passenger" depart="155.73" departLane="best" from="52663744#3" to="52514845#1"/>
    <trip id="veh40" type="veh_passenger" depart="163.92" departLane="best" from="-185467797#1" to="52664437#1"/>
    <trip id="veh41" type="veh_passenger" depart="168.02" departLane="best" from="52514846#0" to="366913701#3"/>
    <trip id="veh42" type="veh_passenger" depart="172.12" departLane="best" departSpeed="max" from="177566523#0" to="-22843276#1"/>
    <trip id="veh43" type="veh_passenger" depart="176.22" departLane="best" from="52514846#0" to="568771388"/>
    <trip id="veh44" type="veh_passenger" depart="180.32" departLane="best" from="-366913701#1" to="177566556#2"/>
    <trip id="veh45" type="veh_passenger" depart="184.41" departLane="best" from="-366913700#1" to="273833832#6"/>
    <trip id="veh47" type="veh_passenger" depart="192.61" departLane="best" from="177566558#2" to="273833832#6"/>
    <trip id="veh48" type="veh_passenger" depart="196.71" departLane="best" from="-547023629#0" to="177566523#5"/>
    <trip id="veh49" type="veh_passenger" depart="200.81" departLane="best" from="723552318#2" to="273833832#1"/>
    <trip id="veh52" type="veh_passenger" depart="213.10" departLane="best" from="52511313#1" to="-366913700#3"/>
    <trip id="veh53" type="veh_passenger" depart="217.20" departLane="best" from="-568771388" to="-52514845#1"/>
    <trip id="veh54" type="veh_passenger" depart="221.30" departLane="best" from="547023629#1" to="177566559#5"/>
    <trip id="veh56" type="veh_passenger" depart="229.49" departLane="best" from="366913700#3" to="-52664437#2"/>
    <trip id="veh57" type="veh_passenger" depart="233.59" departLane="best" from="-366913701#4" to="177566523#8"/>
    <trip id="veh58" type="veh_passenger" depart="237.69" departLane="best" from="177566523#4" to="177566556#2"/>
    <trip id="veh59" type="veh_passenger" depart="241.79" departLane="best" departSpeed="max" from="273833832#0" to="273833832#4"/>
    <trip id="veh60" type="veh_passenger" depart="245.89" departLane="best" from="177566523#2" to="177566523#7"/>
    <trip id="veh61" type="veh_passenger" depart="249.98" departLane="best" from="52514845#0" to="-723552318#1"/>
    <trip id="veh62" type="veh_passenger" depart="254.08" departLane="best" from="-52664437#0" to="177566523#8"/>
    <trip id="veh63" type="veh_passenger" depart="258.18" departLane="best" from="992408934" to="366913701#4"/>
    <trip id="veh64" type="veh_passenger" depart="262.28" departLane="best" from="672840525" to="52664437#1"/>
    <trip id="veh65" type="veh_passenger" depart="266.38" departLane="best" from="177566523#2" to="-22843276#1"/>
    <trip id="veh66" type="veh_passenger" depart="270.47" departLane="best" departSpeed="max" from="177566523#0" to="723323006#2"/>
    <trip id="veh67" type="veh_passenger" depart="274.57" departLane="best" from="177566523#6" to="177566523#8"/>
    <trip id="veh68" type="veh_passenger" depart="278.67" departLane="best" from="622415793#0" to="723552318#2"/>
    <trip id="veh69" type="veh_passenger" depart="282.77" departLane="best" from="177566558#6" to="273833832#6"/>
    <trip id="veh70" type="veh_passenger" depart="286.87" departLane="best" from="672840525" to="177566559#5"/>
    <trip id="veh71" type="veh_passenger" depart="290.96" departLane="best" from="177566558#2" to="273833832#6"/>
    <trip id="veh72" type="veh_passenger" depart="295.06" departLane="best" from="-22843276#0" to="177566559#5"/>
    <trip id="veh73" type="veh_passenger" depart="299.16" departLane="best" departSpeed="max" from="177566558#0" to="439108069#0"/>
    <trip id="veh74" type="veh_passenger" depart="303.26" departLane="best" from="-366913700#4" to="-52664437#1"/>
    <trip id="veh75" type="veh_passenger" depart="307.36" departLane="best" from="185467797#2" to="273833832#4"/>
    <trip id="veh76" type="veh_passenger" depart="311.45" departLane="best" from="-672840525" to="-52511312"/>
    <trip id="veh77" type="veh_passenger" depart="315.55" departLane="best" from="52514846#3" to="-723323006#2"/>
    <trip id="veh78" type="veh_passenger" depart="319.65" departLane="best" from="185467797#2" to="22843127#1"/>
    <trip id="veh79" type="veh_passenger" depart="323.75" departLane="best" from="177566523#3" to="177566559#5"/>
    <trip id="veh80" type="veh_passenger" depart="327.85" departLane="best" departSpeed="max" from="177566558#0" to="547023629#0"/>
    <trip id="veh81" type="veh_passenger" depart="331.95" departLane="best" from="-547023629#1" to="273833832#6"/>
    <trip id="veh82" type="veh_passenger" depart="336.04" departLane="best" from="-692042225" to="177566523#8"/>
    <trip id="veh83" type="veh_passenger" depart="340.14" departLane="best" departSpeed="max" from="273833832#0" to="177566523#4"/>
    <trip id="veh84" type="veh_passenger" depart="344.24" departLane="best" from="-366913700#2" to="177566556#0"/>
    <trip id="veh85" type="veh_passenger" depart="348.34" departLane="best" from="-366913700#3" to="-622415769#1"/>
    <trip id="veh86" type="veh_passenger" depart="352.44" departLane="best" from="-723552318#2" to="52664437#2"/>
    <trip id="veh87" type="veh_passenger" depart="356.53" departLane="best" departSpeed="max" from="177566523#0" to="-52514847#0"/>
    <trip id="veh88" type="veh_passenger" depart="360.63" departLane="best" from="366913701#5" to="273833832#6"/>
    <trip id="veh89" type="veh_passenger" depart="364.73" departLane="best" from="22843127#0" to="723323006#2"/>
    <trip id="veh90" type="veh_passenger" depart="368.83" departLane="best" departSpeed="max" from="273833832#0" to="-104902792#2"/>
    <trip id="veh91" type="veh_passenger" depart="372.93" departLane="best" departSpeed="max" from="273833832#0" to="547023629#1"/>
    <trip id="veh92" type="veh_passenger" depart="377.02" departLane="best" from="-366913701#6" to="177566559#5"/>
    <trip id="veh93" type="veh_passenger" depart="381.12" departLane="best" departSpeed="max" from="273833832#0" to="-547023629#2"/>
    <trip id="veh94" type="veh_passenger" depart="385.22" departLane="best" departSpeed="max" from="273833832#0" to="104902792#1"/>
    <trip id="veh96" type="veh_passenger" depart="393.42" departLane="best" from="366913701#8" to="-366913701#3"/>
    <trip id="veh97" type="veh_passenger" depart="397.51" departLane="best" from="-104902792#0" to="273833832#6"/>
    <trip id="veh98" type="veh_passenger" depart="401.61" departLane="best" departSpeed="max" from="273833832#0" to="104902792#0"/>
    <trip id="veh99" type="veh_passenger" depart="405.71" departLane="best" departSpeed="max" from="273833832#0" to="177566559#5"/>
    <trip id="veh100" type="veh_passenger" depart="409.81" departLane="best" from="177566523#4" to="-104902792#2"/>
    <trip id="veh101" type="veh_passenger" depart="413.91" departLane="best" from="366913701#5" to="177566559#5"/>
    <trip id="veh102" type="veh_passenger" depart="418.01" departLane="best" departSpeed="max" from="177566523#0" to="52514847#0"/>
    <trip id="veh103" type="veh_passenger" depart="422.10" departLane="best" from="52514847#1" to="-622415769#0"/>
    <trip id="veh104" type="veh_passenger" depart="426.20" departLane="best" from="-52514846#2" to="52664437#2"/>
    <trip id="veh105" type="veh_passenger" depart="430.30" departLane="best" from="-185467797#2" to="273833832#6"/>
    <trip id="veh106" type="veh_passenger" depart="434.40" departLane="best" departSpeed="max" from="177566523#0" to="52664437#2"/>
    <trip id="veh107" type="veh_passenger" depart="438.50" departLane="best" from="366913700#2" to="52511313#1"/>
    <trip id="veh108" type="veh_passenger" depart="442.59" departLane="best" from="366913700#4" to="104902792#2"/>
    <trip id="veh109" type="veh_passenger" depart="446.69" departLane="best" from="273833832#5" to="-366913701#8"/>
    <trip id="veh110" type="veh_passenger" depart="450.79" departLane="best" from="52514845#2" to="439108069#1"/>
    <trip id="veh111" type="veh_passenger" depart="454.89" departLane="best" from="-622415769#1" to="366913700#4"/>
    <trip id="veh112" type="veh_passenger" depart="458.99" departLane="best" from="366913700#0" to="-672840525"/>
    <trip id="veh113" type="veh_passenger" depart="463.08" departLane="best" from="-185467797#2" to="-547023629#0"/>
    <trip id="veh114" type="veh_passenger" depart="467.18" departLane="best" departSpeed="max" from="177566523#0" to="52511313#1"/>
    <trip id="veh115" type="veh_passenger" depart="471.28" departLane="best" from="723323006#1" to="177566559#1"/>
    <trip id="veh116" type="veh_passenger" depart="475.38" departLane="best" from="547023629#2" to="-439108069#1"/>
    <trip id="veh117" type="veh_passenger" depart="479.48" departLane="best" from="692042225" to="-52663746"/>
    <trip id="veh118" type="veh_passenger" depart="483.57" departLane="best" from="-366913701#7" to="177566523#8"/>
    <trip id="veh119" type="veh_passenger" depart="487.67" departLane="best" departSpeed="max" from="273833832#0" to="177566523#5"/>
    <trip id="veh120" type="veh_passenger" depart="491.77" departLane="best" from="215261251#0" to="177566558#3"/>
    <trip id="veh121" type="veh_passenger" depart="495.87" departLane="best" departSpeed="max" from="177566523#0" to="177566559#5"/>
    <trip id="veh122" type="veh_passenger" depart="499.97" departLane="best" from="-723323006#2" to="273833832#6"/>
    <trip id="veh123" type="veh_passenger" depart="504.07" departLane="best" from="-104902792#0" to="52664437#0"/>
    <trip id="veh124" type="veh_passenger" depart="508.16" departLane="best" from="177566558#1" to="273833832#6"/>
    <trip id="veh125" type="veh_passenger" depart="512.26" departLane="best" departSpeed="max" from="273833832#0" to="273833832#4"/>
    <trip id="veh126" type="veh_passenger" depart="516.36" departLane="best" departSpeed="max" from="177566523#0" to="-366913700#2"/>
    <trip id="veh127" type="veh_passenger" depart="520.46" departLane="best" departSpeed="max" from="273833832#0" to="177566523#6"/>
    <trip id="veh128" type="veh_passenger" depart="524.56" departLane="best" departSpeed="max" from="177566523#0" to="366913701#7"/>
    <trip id="veh129" type="veh_passenger" depart="528.65" departLane="best" departSpeed="max" from="273833832#0" to="177566523#4"/>
    <trip id="veh130" type="veh_passenger" depart="532.75" departLane="best" departSpeed="max" from="177566523#0" to="177566523#8"/>
    <trip id="veh131" type="veh_passenger" depart="536.85" departLane="best" from="-52511313#1" to="177566523#8"/>
    <trip id="veh132" type="veh_passenger" depart="540.95" departLane="best" from="52663744#0" to="22843127#0"/>
    <trip id="veh133" type="veh_passenger" depart="545.05" departLane="best" departSpeed="max" from="177566523#0" to="177566559#4"/>
    <trip id="veh134" type="veh_passenger" depart="549.14" departLane="best" from="-104902792#0" to="177566523#3"/>
    <trip id="veh135" type="veh_passenger" depart="553.24" departLane="best" from="177566523#4" to="177566559#5"/>
    <trip id="veh136" type="veh_passenger" depart="557.34" departLane="best" departSpeed="max" from="273833832#0" to="177566556#2"/>
    <trip id="veh137" type="veh_passenger" depart="561.44" departLane="best" from="177566523#5" to="-622415769#1"/>
    <trip id="veh138" type="veh_passenger" depart="565.54" departLane="best" from="-366913701#1" to="177566558#4"/>
    <trip id="veh139" type="veh_passenger" depart="569.63" departLane="best" departSpeed="max" from="273833832#0" to="177566523#7"/>
    <trip id="veh140" type="veh_passenger" depart="573.73" departLane="best" from="366913701#1" to="273833832#6"/>
    <trip id="veh141" type="veh_passenger" depart="577.83" departLane="best" departSpeed="max" from="273833832#0" to="-622415793#2"/>
    <trip id="veh142" type="veh_passenger" depart="581.93" departLane="best" from="-52664437#2" to="-185467797#2"/>
    <trip id="veh143" type="veh_passenger" depart="586.03" departLane="best" from="-699397460" to="177566556#2"/>
    <trip id="veh145" type="veh_passenger" depart="594.22" departLane="best" from="177566523#3" to="22843276#1"/>
    <trip id="veh146" type="veh_passenger" depart="598.32" departLane="best" from="-52664437#1" to="273833832#6"/>
    <trip id="veh147" type="veh_passenger" depart="602.42" departLane="best" departSpeed="max" from="177566558#0" to="-723323006#1"/>
    <trip id="veh148" type="veh_passenger" depart="606.52" departLane="best" departSpeed="max" from="273833832#0" to="-104902792#1"/>
    <trip id="veh149" type="veh_passenger" depart="610.62" departLane="best" from="273833832#1" to="273833832#6"/>
    <trip id="veh150" type="veh_passenger" depart="614.71" departLane="best" from="-366913701#6" to="177566523#8"/>
    <trip id="veh151" type="veh_passenger" depart="618.81" departLane="best" departSpeed="max" from="177566558#0" to="-22843134"/>
    <trip id="veh152" type="veh_passenger" depart="622.91" departLane="best" from="-723323006#0" to="366913701#8"/>
    <trip id="veh153" type="veh_passenger" depart="627.01" departLane="best" departSpeed="max" from="273833832#0" to="723323006#2"/>
    <trip id="veh154" type="veh_passenger" depart="631.11" departLane="best" from="185467797#2" to="622415769#0"/>
    <trip id="veh156" type="veh_passenger" depart="639.30" departLane="best" from="52514847#1" to="273833832#6"/>
    <trip id="veh159" type="veh_passenger" depart="651.60" departLane="best" from="22843276#0" to="177566523#2"/>
    <trip id="veh160" type="veh_passenger" depart="655.69" departLane="best" from="177566558#2" to="-52514845#3"/>
    <trip id="veh161" type="veh_passenger" depart="659.79" departLane="best" from="-622415793#2" to="273833832#6"/>
    <trip id="veh162" type="veh_passenger" depart="663.89" departLane="best" departSpeed="max" from="273833832#0" to="-366913700#1"/>
    <trip id="veh163" type="veh_passenger" depart="667.99" departLane="best" from="177566523#2" to="177566559#3"/>
    <trip id="veh164" type="veh_passenger" depart="672.09" departLane="best" from="177566523#3" to="-568771388"/>
    <trip id="veh165" type="veh_passenger" depart="676.19" departLane="best" from="177566523#3" to="52663744#0"/>
    <trip id="veh166" type="veh_passenger" depart="680.28" departLane="best" from="177566566" to="273833832#6"/>
    <trip id="veh167" type="veh_passenger" depart="684.38" departLane="best" from="52511312" to="273833832#6"/>
    <trip id="veh168" type="veh_passenger" depart="688.48" departLane="best" departSpeed="max" from="177566523#0" to="-104902792#1"/>
    <trip id="veh170" type="veh_passenger" depart="696.68" departLane="best" from="177566523#3" to="273833832#6"/>
    <trip id="veh171" type="veh_passenger" depart="700.77" departLane="best" from="177566558#3" to="185467797#3"/>
    <trip id="veh172" type="veh_passenger" depart="704.87" departLane="best" from="-622415769#1" to="-622415793#1"/>
    <trip id="veh173" type="veh_passenger" depart="708.97" departLane="best" departSpeed="max" from="177566523#0" to="273833832#5"/>
    <trip id="veh174" type="veh_passenger" depart="713.07" departLane="best" from="177566523#2" to="-52663744#0"/>
    <trip id="veh175" type="veh_passenger" depart="717.17" departLane="best" departSpeed="max" from="177566523#0" to="177566559#5"/>
    <trip id="veh177" type="veh_passenger" depart="725.36" departLane="best" from="-52514845#1" to="177566556#1"/>
    <trip id="veh178" type="veh_passenger" depart="729.46" departLane="best" from="-22843134" to="177566523#8"/>
    <trip id="veh179" type="veh_passenger" depart="733.56" departLane="best" from="-568771388" to="177566523#6"/>
    <trip id="veh180" type="veh_passenger" depart="737.66" departLane="best" from="273833832#3" to="177566523#8"/>
    <trip id="veh181" type="veh_passenger" depart="741.75" departLane="best" from="273833832#1" to="366913701#3"/>
    <trip id="veh182" type="veh_passenger" depart="745.85" departLane="best" from="-723323006#1" to="-366913701#1"/>
    <trip id="veh183" type="veh_passenger" depart="749.95" departLane="best" from="992408934" to="177566523#8"/>
    <trip id="veh184" type="veh_passenger" depart="754.05" departLane="best" departSpeed="max" from="273833832#0" to="273833832#6"/>
    <trip id="veh185" type="veh_passenger" depart="758.15" departLane="best" departSpeed="max" from="273833832#0" to="273833832#6"/>
    <trip id="veh186" type="veh_passenger" depart="762.24" departLane="best" from="-52511312" to="273833832#4"/>
    <trip id="veh187" type="veh_passenger" depart="766.34" departLane="best" departSpeed="max" from="273833832#0" to="273833832#6"/>
    <trip id="veh188" type="veh_passenger" depart="770.44" departLane="best" from="273833832#1" to="-439108069#0"/>
    <trip id="veh189" type="veh_passenger" depart="774.54" departLane="best" from="-366913701#7" to="-185467797#2"/>
    <trip id="veh190" type="veh_passenger" depart="778.64" departLane="best" departSpeed="max" from="177566523#0" to="273833832#4"/>
    <trip id="veh191" type="veh_passenger" depart="782.74" departLane="best" from="622415793#1" to="177566523#8"/>
    <trip id="veh192" type="veh_passenger" depart="786.83" departLane="best" departSpeed="max" from="273833832#0" to="-366913700#4"/>
    <trip id="veh193" type="veh_passenger" depart="790.93" departLane="best" departSpeed="max" from="273833832#0" to="22843276#0"/>
    <trip id="veh194" type="veh_passenger" depart="795.03" departLane="best" from="-366913701#5" to="273833832#6"/>
    <trip id="veh196" type="veh_passenger" depart="803.23" departLane="best" from="273833832#5" to="177566523#8"/>
    <trip id="veh197" type="veh_passenger" depart="807.32" departLane="best" from="177566523#4" to="177566523#8"/>
    <trip id="veh198" type="veh_passenger" depart="811.42" departLane="best" departSpeed="max" from="177566558#0" to="177566523#7"/>
    <trip id="veh199" type="veh_passenger" depart="815.52" departLane="best" from="-366913701#6" to="622415793#1"/>
    <trip id="veh200" type="veh_passenger" depart="819.62" departLane="best" departSpeed="max" from="273833832#0" to="366913701#2"/>
    <trip id="veh201" type="veh_passenger" depart="823.72" departLane="best" departSpeed="max" from="273833832#0" to="622415793#2"/>
    <trip id="veh202" type="veh_passenger" depart="827.81" departLane="best" from="177566558#1" to="177566556#2"/>
    <trip id="veh203" type="veh_passenger" depart="831.91" departLane="best" from="177566523#5" to="273833832#6"/>
    <trip id="veh204" type="veh_passenger" depart="836.01" departLane="best" from="-992408934" to="366913701#8"/>
    <trip id="veh205" type="veh_passenger" depart="840.11" departLane="best" from="52514846#1" to="-723323006#1"/>
    <trip id="veh206" type="veh_passenger" depart="844.21" departLane="best" departSpeed="max" from="177566523#0" to="-185467797#3"/>
    <trip id="veh208" type="veh_passenger" depart="852.40" departLane="best" from="-568771388" to="273833832#6"/>
    <trip id="veh209" type="veh_passenger" depart="856.50" departLane="best" departSpeed="max" from="177566523#0" to="52514845#3"/>
    <trip id="veh210" type="veh_passenger" depart="860.60" departLane="best" departSpeed="max" from="273833832#0" to="177566523#2"/>
    <trip id="veh211" type="veh_passenger" depart="864.70" departLane="best" from="-104902792#2" to="568771388"/>
    <trip id="veh212" type="veh_passenger" depart="868.80" departLane="best" from="-366913701#1" to="273833832#6"/>
    <trip id="veh214" type="veh_passenger" depart="876.99" departLane="best" departSpeed="max" from="273833832#0" to="273833832#1"/>
    <trip id="veh216" type="veh_passenger" depart="885.19" departLane="best" departSpeed="max" from="273833832#0" to="177566523#4"/>
    <trip id="veh217" type="veh_passenger" depart="889.29" departLane="best" from="177566566" to="177566556#2"/>
    <trip id="veh218" type="veh_passenger" depart="893.38" departLane="best" from="177566558#1" to="177566523#8"/>
    <trip id="veh219" type="veh_passenger" depart="897.48" departLane="best" departSpeed="max" from="273833832#0" to="177566523#6"/>
    <trip id="veh220" type="veh_passenger" depart="901.58" departLane="best" departSpeed="max" from="273833832#0" to="104902793"/>
    <trip id="veh221" type="veh_passenger" depart="905.68" departLane="best" from="177566558#1" to="273833832#6"/>
    <trip id="veh222" type="veh_passenger" depart="909.78" departLane="best" from="-52663746" to="-622415793#0"/>
    <trip id="veh224" type="veh_passenger" depart="917.97" departLane="best" from="104902793" to="-366913701#6"/>
    <trip id="veh225" type="veh_passenger" depart="922.07" departLane="best" from="-52664437#1" to="-672840525"/>
    <trip id="veh226" type="veh_passenger" depart="926.17" departLane="best" from="-52663744#2" to="-104902793"/>
    <trip id="veh227" type="veh_passenger" depart="930.27" departLane="best" from="699397460" to="177566559#5"/>
    <trip id="veh228" type="veh_passenger" depart="934.36" departLane="best" departSpeed="max" from="273833832#0" to="-52514845#0"/>
    <trip id="veh229" type="veh_passenger" depart="938.46" departLane="best" from="52514845#1" to="177566556#2"/>
    <trip id="veh230" type="veh_passenger" depart="942.56" departLane="best" from="52514845#2" to="177566559#5"/>
    <trip id="veh231" type="veh_passenger" depart="946.66" departLane="best" from="177566523#7" to="177566523#8"/>
    <trip id="veh232" type="veh_passenger" depart="950.76" departLane="best" from="-52663744#3" to="-22843134"/>
    <trip id="veh233" type="veh_passenger" depart="954.86" departLane="best" from="547023629#2" to="177566556#2"/>
    <trip id="veh234" type="veh_passenger" depart="958.95" departLane="best" from="366913701#2" to="177566523#8"/>
    <trip id="veh235" type="veh_passenger" depart="963.05" departLane="best" from="-22843134" to="-52514846#2"/>
    <trip id="veh236" type="veh_passenger" depart="967.15" departLane="best" from="723552318#2" to="-439108069#1"/>
    <trip id="veh237" type="veh_passenger" depart="971.25" departLane="best" from="273833832#5" to="-622415793#2"/>
    <trip id="veh238" type="veh_passenger" depart="975.35" departLane="best" departSpeed="max" from="177566558#0" to="177566523#8"/>
    <trip id="veh239" type="veh_passenger" depart="979.44" departLane="best" from="22843134" to="215261251#0"/>
    <trip id="veh240" type="veh_passenger" depart="983.54" departLane="best" departSpeed="max" from="273833832#0" to="568771388"/>
    <trip id="veh241" type="veh_passenger" depart="987.64" departLane="best" departSpeed="max" from="273833832#0" to="-52514847#0"/>
    <trip id="veh242" type="veh_passenger" depart="991.74" departLane="best" from="-52663744#1" to="-366913700#4"/>
    <trip id="veh243" type="veh_passenger" depart="995.84" departLane="best" from="-104902792#0" to="177566523#8"/>
    <trip id="veh244" type="veh_passenger" depart="999.93" departLane="best" from="185467797#2" to="177566523#3"/>
    <trip id="veh245" type="veh_passenger" depart="1004.03" departLane="best" from="-622415793#2" to="273833832#6"/>
    <trip id="veh246" type="veh_passenger" depart="1008.13" departLane="best" departSpeed="max" from="273833832#0" to="52664437#0"/>
    <trip id="veh247" type="veh_passenger" depart="1012.23" departLane="best" departSpeed="max" from="273833832#0" to="547023629#0"/>
    <trip id="veh248" type="veh_passenger" depart="1016.33" departLane="best" from="177566523#4" to="177566559#4"/>
    <trip id="veh249" type="veh_passenger" depart="1020.42" departLane="best" departSpeed="max" from="273833832#0" to="52663744#1"/>
    <trip id="veh250" type="veh_passenger" depart="1024.52" departLane="best" departSpeed="max" from="177566523#0" to="-52511313#1"/>
    <trip id="veh251" type="veh_passenger" depart="1028.62" departLane="best" departSpeed="max" from="273833832#0" to="273833832#6"/>
    <trip id="veh253" type="veh_passenger" depart="1036.82" departLane="best" departSpeed="max" from="177566558#0" to="-366913701#0"/>
    <trip id="veh254" type="veh_passenger" depart="1040.92" departLane="best" from="-215261251#1" to="177566523#8"/>
    <trip id="veh255" type="veh_passenger" depart="1045.01" departLane="best" departSpeed="max" from="177566523#0" to="-723552318#1"/>
    <trip id="veh256" type="veh_passenger" depart="1049.11" departLane="best" from="366913701#6" to="177566559#5"/>
    <trip id="veh257" type="veh_passenger" depart="1053.21" departLane="best" departSpeed="max" from="273833832#0" to="104902792#2"/>
    <trip id="veh258" type="veh_passenger" depart="1057.31" departLane="best" from="-215261251#1" to="273833832#6"/>
    <trip id="veh259" type="veh_passenger" depart="1061.41" departLane="best" from="52663746" to="-52664437#0"/>