<?xml version="1.0" encoding="UTF-8"?>

<!-- generated on 2021-12-05 23:36:04 by Eclipse SUMO netconvert Version 1.9.2
<configuration xmlns:xsi="http://www.w3.org/2001/XMLSchema-instance" xsi:noNamespaceSchemaLocation="http://sumo.dlr.de/xsd/netconvertConfiguration.xsd">

    <input>
        <type-files value="C:\Program%20Files%20(x86)\Eclipse\Sumo\data\typemap\osmNetconvert.typ.xml"/>
        <osm-files value="osm_bbox.osm.xml"/>
    </input>

    <output>
        <output-file value="osm.net.xml"/>
        <output.street-names value="true"/>
        <output.original-names value="true"/>
    </output>

    <projection>
        <proj.utm value="true"/>
    </projection>

    <processing>
        <geometry.remove value="true"/>
        <roundabouts.guess value="true"/>
        <lefthand value="true"/>
    </processing>

    <tls_building>
        <tls.discard-simple value="true"/>
        <tls.join value="true"/>
        <tls.guess-signals value="true"/>
        <tls.default-type value="actuated"/>
    </tls_building>

    <ramp_guessing>
        <ramps.guess value="true"/>
    </ramp_guessing>

    <junctions>
        <junctions.join value="true"/>
        <junctions.corner-detail value="5"/>
    </junctions>

    <report>
        <verbose value="true"/>
        <aggregate-warnings value="5"/>
    </report>

</configuration>
-->

<net version="1.9" junctionCornerDetail="5" lefthand="true" limitTurnSpeed="5.50" xmlns:xsi="http://www.w3.org/2001/XMLSchema-instance" xsi:noNamespaceSchemaLocation="http://sumo.dlr.de/xsd/net_file.xsd">

    <location netOffset="-270676.52,-2115166.86" convBoundary="0.00,-0.00,12818.80,2985.67" origBoundary="72.819690,19.117675,72.941679,19.144398" projParameter="+proj=utm +zone=43 +ellps=WGS84 +datum=WGS84 +units=m +no_defs"/>

    <type id="highway.bridleway" priority="1" numLanes="1" speed="2.78" allow="pedestrian" oneway="1" width="2.00"/>
    <type id="highway.bus_guideway" priority="1" numLanes="1" speed="27.78" allow="bus" oneway="1"/>
    <type id="highway.cycleway" priority="1" numLanes="1" speed="8.33" allow="bicycle" oneway="0" width="1.00"/>
    <type id="highway.footway" priority="1" numLanes="1" speed="2.78" allow="pedestrian" oneway="1" width="2.00"/>
    <type id="highway.ford" priority="1" numLanes="1" speed="2.78" allow="army" oneway="0"/>
    <type id="highway.living_street" priority="2" numLanes="1" speed="2.78" disallow="tram rail_urban rail rail_electric rail_fast ship" oneway="0"/>
    <type id="highway.motorway" priority="14" numLanes="2" speed="39.44" allow="private emergency authority army vip passenger hov taxi bus coach delivery truck trailer motorcycle evehicle custom1 custom2" oneway="1"/>
    <type id="highway.motorway_link" priority="9" numLanes="1" speed="22.22" allow="private emergency authority army vip passenger hov taxi bus coach delivery truck trailer motorcycle evehicle custom1 custom2" oneway="1"/>
    <type id="highway.path" priority="1" numLanes="1" speed="2.78" allow="pedestrian bicycle" oneway="0" width="2.00"/>
    <type id="highway.pedestrian" priority="1" numLanes="1" speed="2.78" allow="pedestrian" oneway="1" width="2.00"/>
    <type id="highway.primary" priority="12" numLanes="2" speed="27.78" disallow="tram rail_urban rail rail_electric rail_fast ship" oneway="0"/>
    <type id="highway.primary_link" priority="7" numLanes="1" speed="22.22" disallow="tram rail_urban rail rail_electric rail_fast ship" oneway="0"/>
    <type id="highway.raceway" priority="15" numLanes="2" speed="83.33" allow="vip" oneway="0"/>
    <type id="highway.residential" priority="3" numLanes="1" speed="13.89" disallow="tram rail_urban rail rail_electric rail_fast ship" oneway="0"/>
    <type id="highway.secondary" priority="11" numLanes="1" speed="27.78" disallow="tram rail_urban rail rail_electric rail_fast ship" oneway="0"/>
    <type id="highway.secondary_link" priority="6" numLanes="1" speed="22.22" disallow="tram rail_urban rail rail_electric rail_fast ship" oneway="0"/>
    <type id="highway.service" priority="1" numLanes="1" speed="5.56" allow="pedestrian delivery bicycle" oneway="0"/>
    <type id="highway.stairs" priority="1" numLanes="1" speed="1.39" allow="pedestrian" oneway="1" width="2.00"/>
    <type id="highway.step" priority="1" numLanes="1" speed="1.39" allow="pedestrian" oneway="1" width="2.00"/>
    <type id="highway.steps" priority="1" numLanes="1" speed="1.39" allow="pedestrian" oneway="1" width="2.00"/>
    <type id="highway.tertiary" priority="10" numLanes="1" speed="22.22" disallow="tram rail_urban rail rail_electric rail_fast ship" oneway="0"/>
    <type id="highway.tertiary_link" priority="5" numLanes="1" speed="22.22" disallow="tram rail_urban rail rail_electric rail_fast ship" oneway="0"/>
    <type id="highway.track" priority="1" numLanes="1" speed="5.56" allow="pedestrian motorcycle moped bicycle" oneway="0"/>
    <type id="highway.trunk" priority="13" numLanes="2" speed="27.78" disallow="pedestrian bicycle tram rail_urban rail rail_electric rail_fast ship" oneway="0"/>
    <type id="highway.trunk_link" priority="8" numLanes="1" speed="22.22" disallow="pedestrian bicycle tram rail_urban rail rail_electric rail_fast ship" oneway="0"/>
    <type id="highway.unclassified" priority="4" numLanes="1" speed="13.89" disallow="tram rail_urban rail rail_electric rail_fast ship" oneway="0"/>
    <type id="highway.unsurfaced" priority="1" numLanes="1" speed="8.33" disallow="tram rail_urban rail rail_electric rail_fast ship" oneway="0"/>
    <type id="railway.highspeed" priority="21" numLanes="1" speed="69.44" allow="rail_fast" oneway="1"/>
    <type id="railway.light_rail" priority="19" numLanes="1" speed="27.78" allow="rail_urban" oneway="1"/>
    <type id="railway.preserved" priority="16" numLanes="1" speed="27.78" allow="rail" oneway="1"/>
    <type id="railway.rail" priority="20" numLanes="1" speed="44.44" allow="rail" oneway="1"/>
    <type id="railway.subway" priority="18" numLanes="1" speed="27.78" allow="rail_urban" oneway="1"/>
    <type id="railway.tram" priority="17" numLanes="1" speed="13.89" allow="tram" oneway="1"/>

    <edge id=":1209663102_0" function="internal">
        <lane id=":1209663102_0_0" index="0" disallow="tram rail_urban rail rail_electric rail_fast ship" speed="5.51" length="8.44" shape="10294.16,906.44 10293.75,909.17 10292.77,910.73 10291.23,911.12 10289.12,910.35"/>
    </edge>
    <edge id=":1209663102_1" function="internal">
        <lane id=":1209663102_1_0" index="0" disallow="tram rail_urban rail rail_electric rail_fast ship" speed="3.65" length="4.67" shape="10294.16,906.44 10294.91,907.67 10295.70,908.11 10296.51,907.74 10297.36,906.57"/>
    </edge>
    <edge id=":1209663102_2" function="internal">
        <lane id=":1209663102_2_0" index="0" disallow="tram rail_urban rail rail_electric rail_fast ship" speed="12.10" length="13.22" shape="10300.11,919.11 10298.24,916.28 10297.40,913.32 10297.23,910.12 10297.36,906.57"/>
    </edge>
    <edge id=":1209663102_3" function="internal">
        <lane id=":1209663102_3_0" index="0" disallow="tram rail_urban rail rail_electric rail_fast ship" speed="22.22" length="14.12" shape="10300.11,919.11 10297.59,916.52 10294.99,914.26 10292.20,912.24 10289.12,910.35"/>
    </edge>
    <edge id=":1646887550_0" function="internal">
        <lane id=":1646887550_0_0" index="0" disallow="tram rail_urban rail rail_electric rail_fast ship" speed="3.65" length="4.67" shape="10959.11,64.29 10959.66,62.96 10959.55,62.07 10958.77,61.63 10957.33,61.64"/>
    </edge>
    <edge id=":1646887643_0" function="internal">
        <lane id=":1646887643_0_0" index="0" disallow="tram rail_urban rail rail_electric rail_fast ship" speed="6.30" length="9.04" shape="10826.68,840.34 10824.17,840.46 10822.30,839.73 10821.07,838.14 10820.48,835.70"/>
    </edge>
    <edge id=":1646887643_1" function="internal">
        <lane id=":1646887643_1_0" index="0" disallow="tram rail_urban rail rail_electric rail_fast ship" speed="22.22" length="14.27" shape="10826.68,840.34 10823.12,841.08 10819.72,841.91 10816.35,842.85 10812.89,843.96"/>
    </edge>
    <edge id=":1646887643_2" function="internal">
        <lane id=":1646887643_2_0" index="0" disallow="tram rail_urban rail rail_electric rail_fast ship" speed="7.42" length="9.91" shape="10817.29,835.99 10817.24,838.85 10816.48,841.13 10815.03,842.83 10812.89,843.96"/>
    </edge>
    <edge id=":1646887643_3" function="internal">
        <lane id=":1646887643_3_0" index="0" disallow="tram rail_urban rail rail_electric rail_fast ship" speed="3.65" length="4.67" shape="10817.29,835.99 10818.20,837.12 10819.04,837.44 10819.79,836.97 10820.48,835.70"/>
    </edge>
    <edge id=":177566523#2-AddedOnRampNode_0" function="internal">
        <lane id=":177566523#2-AddedOnRampNode_0_0" index="0" disallow="tram rail_urban rail rail_electric rail_fast ship" speed="27.78" length="8.00" shape="10658.66,1049.31 10656.21,1056.92"/>
        <lane id=":177566523#2-AddedOnRampNode_0_1" index="1" disallow="tram rail_urban rail rail_electric rail_fast ship" speed="27.78" length="8.00" shape="10661.71,1050.29 10659.26,1057.90"/>
        <lane id=":177566523#2-AddedOnRampNode_0_2" index="2" disallow="tram rail_urban rail rail_electric rail_fast ship" speed="27.78" length="8.00" shape="10664.75,1051.26 10662.30,1058.88"/>
    </edge>
    <edge id=":1879817408_0" function="internal">
        <lane id=":1879817408_0_0" index="0" allow="pedestrian delivery bicycle" speed="16.67" length="30.53" shape="9235.58,346.93 9231.07,345.34 9224.68,343.12 9216.69,339.91 9207.39,335.32"/>
    </edge>
    <edge id=":1879817408_1" function="internal">
        <lane id=":1879817408_1_0" index="0" disallow="tram rail_urban rail rail_electric rail_fast ship" speed="27.78" length="30.50" shape="9234.14,349.97 9207.39,335.32"/>
        <lane id=":1879817408_1_1" index="1" disallow="tram rail_urban rail rail_electric rail_fast ship" speed="27.78" length="30.50" shape="9232.60,352.78 9205.85,338.13"/>
        <lane id=":1879817408_1_2" index="2" disallow="tram rail_urban rail rail_electric rail_fast ship" speed="27.78" length="30.50" shape="9231.07,355.59 9204.32,340.94"/>
    </edge>
    <edge id=":1879817461_0" function="internal">
        <lane id=":1879817461_0_0" index="0" disallow="tram rail_urban rail rail_electric rail_fast ship" speed="5.97" length="9.09" shape="9490.96,605.73 9490.54,608.31 9489.41,609.87 9487.55,610.44 9484.99,610.00"/>
    </edge>
    <edge id=":1879817461_1" function="internal">
        <lane id=":1879817461_1_0" index="0" disallow="tram rail_urban rail rail_electric rail_fast ship" speed="22.22" length="14.82" shape="9490.96,605.73 9490.83,609.45 9490.58,613.13 9490.17,616.80 9489.58,620.47"/>
    </edge>
    <edge id=":1879817461_2" function="internal">
        <lane id=":1879817461_2_0" index="0" disallow="tram rail_urban rail rail_electric rail_fast ship" speed="3.65" length="2.34" shape="9490.96,605.73 9491.74,606.95 9492.53,607.37"/>
    </edge>
    <edge id=":1879817461_12" function="internal">
        <lane id=":1879817461_12_0" index="0" disallow="tram rail_urban rail rail_electric rail_fast ship" speed="3.65" length="2.34" shape="9492.53,607.37 9493.34,606.98 9494.16,605.80"/>
    </edge>
    <edge id=":1879817461_3" function="internal">
        <lane id=":1879817461_3_0" index="0" disallow="tram rail_urban rail rail_electric rail_fast ship" speed="9.18" length="13.27" shape="9499.41,617.16 9497.05,615.55 9495.38,613.12 9494.42,609.87 9494.16,605.80"/>
    </edge>
    <edge id=":1879817461_4" function="internal">
        <lane id=":1879817461_4_0" index="0" disallow="tram rail_urban rail rail_electric rail_fast ship" speed="13.89" length="16.12" shape="9499.41,617.16 9495.90,615.40 9492.27,613.40 9488.60,611.48 9484.99,610.00"/>
    </edge>
    <edge id=":1879817461_5" function="internal">
        <lane id=":1879817461_5_0" index="0" disallow="tram rail_urban rail rail_electric rail_fast ship" speed="7.00" length="12.48" shape="9499.41,617.16 9495.60,615.96 9492.69,616.11 9490.69,617.61 9489.58,620.47"/>
    </edge>
    <edge id=":1879817461_6" function="internal">
        <lane id=":1879817461_6_0" index="0" disallow="tram rail_urban rail rail_electric rail_fast ship" speed="22.22" length="15.34" shape="9492.73,621.06 9493.32,617.30 9493.75,613.46 9494.02,609.60 9494.16,605.80"/>
    </edge>
    <edge id=":1879817461_7" function="internal">
        <lane id=":1879817461_7_0" index="0" disallow="tram rail_urban rail rail_electric rail_fast ship" speed="8.61" length="5.98" shape="9492.73,621.06 9492.80,617.33 9491.95,615.25"/>
    </edge>
    <edge id=":1879817461_8" function="internal">
        <lane id=":1879817461_8_0" index="0" disallow="tram rail_urban rail rail_electric rail_fast ship" speed="3.65" length="2.34" shape="9492.73,621.06 9492.16,619.73 9491.45,619.19"/>
    </edge>
    <edge id=":1879817461_13" function="internal">
        <lane id=":1879817461_13_0" index="0" disallow="tram rail_urban rail rail_electric rail_fast ship" speed="8.61" length="9.00" shape="9491.95,615.25 9491.54,614.25 9488.93,611.80 9484.99,610.00"/>
    </edge>
    <edge id=":1879817461_14" function="internal">
        <lane id=":1879817461_14_0" index="0" disallow="tram rail_urban rail rail_electric rail_fast ship" speed="3.65" length="2.34" shape="9491.45,619.19 9490.59,619.44 9489.58,620.47"/>
    </edge>
    <edge id=":1879817461_9" function="internal">
        <lane id=":1879817461_9_0" index="0" disallow="tram rail_urban rail rail_electric rail_fast ship" speed="7.23" length="10.29" shape="9484.00,613.04 9486.81,614.30 9488.68,615.96 9489.60,618.01 9489.58,620.47"/>
    </edge>
    <edge id=":1879817461_10" function="internal">
        <lane id=":1879817461_10_0" index="0" disallow="tram rail_urban rail rail_electric rail_fast ship" speed="7.58" length="15.44" shape="9484.00,613.04 9488.37,613.79 9491.52,612.83 9493.45,610.17 9494.16,605.80"/>
    </edge>
    <edge id=":1879817461_11" function="internal">
        <lane id=":1879817461_11_0" index="0" disallow="tram rail_urban rail rail_electric rail_fast ship" speed="3.65" length="4.67" shape="9484.00,613.04 9485.39,612.65 9486.02,612.01 9485.88,611.13 9484.99,610.00"/>
    </edge>
    <edge id=":1879817481_0" function="internal">
        <lane id=":1879817481_0_0" index="0" disallow="tram rail_urban rail rail_electric rail_fast ship" speed="6.41" length="9.04" shape="9755.09,658.61 9754.19,660.93 9752.76,662.37 9750.81,662.93 9748.34,662.60"/>
    </edge>
    <edge id=":1879817481_1" function="internal">
        <lane id=":1879817481_1_0" index="0" disallow="tram rail_urban rail rail_electric rail_fast ship" speed="22.22" length="9.83" shape="9755.09,658.61 9754.42,661.45 9754.07,663.43 9754.04,665.43 9754.33,668.31"/>
    </edge>
    <edge id=":1879817481_2" function="internal">
        <lane id=":1879817481_2_0" index="0" disallow="tram rail_urban rail rail_electric rail_fast ship" speed="13.89" length="9.44" shape="9757.43,665.17 9748.34,662.60"/>
    </edge>
    <edge id=":1879817481_3" function="internal">
        <lane id=":1879817481_3_0" index="0" disallow="tram rail_urban rail rail_electric rail_fast ship" speed="4.76" length="5.68" shape="9757.43,665.17 9755.88,664.98 9754.84,665.44 9754.33,666.55 9754.33,668.31"/>
    </edge>
    <edge id=":1879817490_0" function="internal">
        <lane id=":1879817490_0_0" index="0" disallow="tram rail_urban rail rail_electric rail_fast ship" speed="5.81" length="8.18" shape="9763.23,674.92 9760.55,673.95 9758.91,672.75 9758.30,671.30 9758.73,669.62"/>
    </edge>
    <edge id=":1879817490_1" function="internal">
        <lane id=":1879817490_1_0" index="0" disallow="tram rail_urban rail rail_electric rail_fast ship" speed="27.78" length="15.10" shape="9763.23,674.92 9748.71,670.94"/>
        <lane id=":1879817490_1_1" index="1" disallow="tram rail_urban rail rail_electric rail_fast ship" speed="27.78" length="15.10" shape="9762.41,678.01 9747.84,674.02"/>
        <lane id=":1879817490_1_2" index="2" disallow="tram rail_urban rail rail_electric rail_fast ship" speed="27.78" length="15.10" shape="9761.59,681.11 9746.97,677.10"/>
    </edge>
    <edge id=":1879817490_4" function="internal">
        <lane id=":1879817490_4_0" index="0" disallow="tram rail_urban rail rail_electric rail_fast ship" speed="7.16" length="11.41" shape="9761.59,681.11 9757.77,680.43 9754.87,680.67 9752.90,681.83 9751.84,683.91"/>
    </edge>
    <edge id=":1879817490_5" function="internal">
        <lane id=":1879817490_5_0" index="0" disallow="tram rail_urban rail rail_electric rail_fast ship" speed="22.22" length="15.54" shape="9754.95,684.65 9755.70,680.87 9756.40,676.97 9757.32,673.16 9758.73,669.62"/>
    </edge>
    <edge id=":1879817490_6" function="internal">
        <lane id=":1879817490_6_0" index="0" disallow="tram rail_urban rail rail_electric rail_fast ship" speed="7.56" length="3.63" shape="9754.95,684.65 9754.89,682.31 9754.18,681.23"/>
    </edge>
    <edge id=":1879817490_7" function="internal">
        <lane id=":1879817490_7_0" index="0" disallow="tram rail_urban rail rail_electric rail_fast ship" speed="3.65" length="2.34" shape="9754.95,684.65 9754.45,683.30 9753.76,682.72"/>
    </edge>
    <edge id=":1879817490_11" function="internal">
        <lane id=":1879817490_11_0" index="0" disallow="tram rail_urban rail rail_electric rail_fast ship" speed="7.56" length="8.49" shape="9754.18,681.23 9753.54,680.28 9750.90,678.54 9746.97,677.10"/>
    </edge>
    <edge id=":1879817490_12" function="internal">
        <lane id=":1879817490_12_0" index="0" disallow="tram rail_urban rail rail_electric rail_fast ship" speed="3.65" length="2.34" shape="9753.76,682.72 9752.89,682.93 9751.84,683.91"/>
    </edge>
    <edge id=":1879817490_8" function="internal">
        <lane id=":1879817490_8_0" index="0" disallow="tram rail_urban rail rail_electric rail_fast ship" speed="5.39" length="7.68" shape="9754.36,668.51 9754.20,670.23 9753.21,671.20 9751.38,671.44 9748.71,670.94"/>
    </edge>
    <edge id=":1879817490_9" function="internal">
        <lane id=":1879817490_9_0" index="0" disallow="tram rail_urban rail rail_electric rail_fast ship" speed="22.22" length="15.69" shape="9754.36,668.51 9754.39,672.33 9753.76,676.25 9752.80,680.15 9751.84,683.91"/>
    </edge>
    <edge id=":1879817490_10" function="internal">
        <lane id=":1879817490_10_0" index="0" disallow="tram rail_urban rail rail_electric rail_fast ship" speed="5.05" length="4.37" shape="9754.36,668.51 9754.99,671.44 9755.85,672.51"/>
    </edge>
    <edge id=":1879817490_13" function="internal">
        <lane id=":1879817490_13_0" index="0" disallow="tram rail_urban rail rail_electric rail_fast ship" speed="5.05" length="4.34" shape="9755.85,672.51 9755.93,672.60 9757.17,671.99 9758.73,669.62"/>
    </edge>
    <edge id=":1879817526_0" function="internal">
        <lane id=":1879817526_0_0" index="0" disallow="tram rail_urban rail rail_electric rail_fast ship" speed="6.64" length="9.52" shape="10121.35,758.73 10120.27,761.14 10118.70,762.63 10116.64,763.19 10114.09,762.82"/>
    </edge>
    <edge id=":1879817526_1" function="internal">
        <lane id=":1879817526_1_0" index="0" disallow="tram rail_urban rail rail_electric rail_fast ship" speed="3.65" length="4.68" shape="10121.35,758.73 10121.70,760.13 10122.32,760.77 10123.21,760.66 10124.37,759.80"/>
    </edge>
    <edge id=":1879817526_2" function="internal">
        <lane id=":1879817526_2_0" index="0" disallow="tram rail_urban rail rail_electric rail_fast ship" speed="6.39" length="8.94" shape="10128.07,766.63 10125.85,765.71 10124.50,764.27 10124.00,762.30 10124.37,759.80"/>
    </edge>
    <edge id=":1879817526_3" function="internal">
        <lane id=":1879817526_3_0" index="0" disallow="tram rail_urban rail rail_electric rail_fast ship" speed="13.89" length="14.50" shape="10128.07,766.63 10114.09,762.82"/>
    </edge>
    <edge id=":1879817556_0" function="internal">
        <lane id=":1879817556_0_0" index="0" disallow="tram rail_urban rail rail_electric rail_fast ship" speed="13.89" length="16.31" shape="10164.68,797.99 10162.91,801.52 10161.25,805.38 10159.74,809.30 10158.40,813.02"/>
    </edge>
    <edge id=":1879817556_1" function="internal">
        <lane id=":1879817556_1_0" index="0" disallow="tram rail_urban rail rail_electric rail_fast ship" speed="6.98" length="1.09" shape="10164.68,797.99 10164.63,799.07"/>
    </edge>
    <edge id=":1879817556_2" function="internal">
        <lane id=":1879817556_2_0" index="0" disallow="tram rail_urban rail rail_electric rail_fast ship" speed="3.65" length="2.34" shape="10164.68,797.99 10164.80,799.42 10165.30,800.16"/>
    </edge>
    <edge id=":1879817556_11" function="internal">
        <lane id=":1879817556_11_0" index="0" disallow="tram rail_urban rail rail_electric rail_fast ship" speed="6.98" length="7.74" shape="10164.63,799.07 10165.43,800.59 10167.10,802.53 10169.62,804.90"/>
    </edge>
    <edge id=":1879817556_12" function="internal">
        <lane id=":1879817556_12_0" index="0" disallow="tram rail_urban rail rail_electric rail_fast ship" speed="3.65" length="2.34" shape="10165.30,800.16 10166.20,800.20 10167.48,799.53"/>
    </edge>
    <edge id=":1879817556_3" function="internal">
        <lane id=":1879817556_3_0" index="0" disallow="tram rail_urban rail rail_electric rail_fast ship" speed="5.14" length="6.77" shape="10161.43,814.08 10162.46,811.55 10163.47,809.98 10164.45,809.37 10165.41,809.72"/>
    </edge>
    <edge id=":1879817556_4" function="internal">
        <lane id=":1879817556_4_0" index="0" disallow="tram rail_urban rail rail_electric rail_fast ship" speed="13.89" length="15.77" shape="10161.43,814.08 10162.73,810.43 10164.16,806.68 10165.75,802.99 10167.48,799.53"/>
    </edge>
    <edge id=":1879817556_5" function="internal">
        <lane id=":1879817556_5_0" index="0" disallow="tram rail_urban rail rail_electric rail_fast ship" speed="3.65" length="2.34" shape="10161.43,814.08 10161.07,812.68 10160.44,812.04"/>
    </edge>
    <edge id=":1879817556_13" function="internal">
        <lane id=":1879817556_13_0" index="0" disallow="tram rail_urban rail rail_electric rail_fast ship" speed="3.65" length="2.34" shape="10160.44,812.04 10159.56,812.16 10158.40,813.02"/>
    </edge>
    <edge id=":1879817556_6" function="internal">
        <lane id=":1879817556_6_0" index="0" disallow="tram rail_urban rail rail_electric rail_fast ship" speed="7.24" length="10.66" shape="10155.84,803.80 10157.87,805.22 10158.98,807.23 10159.16,809.83 10158.40,813.02"/>
    </edge>
    <edge id=":1879817556_7" function="internal">
        <lane id=":1879817556_7_0" index="0" disallow="tram rail_urban rail rail_electric rail_fast ship" speed="27.78" length="12.28" shape="10155.84,803.80 10158.90,805.18 10160.96,806.23 10162.85,807.55 10165.41,809.72"/>
        <lane id=":1879817556_7_1" index="1" disallow="tram rail_urban rail rail_electric rail_fast ship" speed="27.78" length="12.28" shape="10157.15,800.88 10160.47,802.38 10162.70,803.53 10164.74,804.96 10167.52,807.31"/>
        <lane id=":1879817556_7_2" index="2" disallow="tram rail_urban rail rail_electric rail_fast ship" speed="27.78" length="12.28" shape="10158.46,797.96 10162.04,799.57 10164.43,800.82 10166.64,802.37 10169.62,804.90"/>
    </edge>
    <edge id=":1879817556_10" function="internal">
        <lane id=":1879817556_10_0" index="0" disallow="tram rail_urban rail rail_electric rail_fast ship" speed="6.89" length="9.59" shape="10158.46,797.96 10161.99,799.40 10164.67,800.13 10166.50,800.18 10167.48,799.53"/>
    </edge>
    <edge id=":1879817582_0" function="internal">
        <lane id=":1879817582_0_0" index="0" disallow="tram rail_urban rail rail_electric rail_fast ship" speed="5.81" length="9.14" shape="10175.07,826.88 10176.54,824.64 10178.20,823.73 10180.04,824.15 10182.07,825.89"/>
    </edge>
    <edge id=":1879817582_1" function="internal">
        <lane id=":1879817582_1_0" index="0" disallow="tram rail_urban rail rail_electric rail_fast ship" speed="13.89" length="23.65" shape="10175.07,826.88 10176.29,821.99 10176.79,815.27 10176.61,808.51 10175.81,803.46"/>
    </edge>
    <edge id=":1879817582_2" function="internal">
        <lane id=":1879817582_2_0" index="0" disallow="tram rail_urban rail rail_electric rail_fast ship" speed="3.65" length="4.67" shape="10175.07,826.88 10174.86,825.46 10174.31,824.75 10173.41,824.77 10172.18,825.51"/>
    </edge>
    <edge id=":1879817582_3" function="internal">
        <lane id=":1879817582_3_0" index="0" disallow="tram rail_urban rail rail_electric rail_fast ship" speed="10.08" length="18.24" shape="10165.56,809.85 10169.69,814.08 10172.18,818.11 10173.00,821.92 10172.18,825.51"/>
    </edge>
    <edge id=":1879817582_4" function="internal">
        <lane id=":1879817582_4_0" index="0" disallow="tram rail_urban rail rail_electric rail_fast ship" speed="27.78" length="23.47" shape="10165.56,809.85 10170.72,814.34 10174.21,817.48 10177.50,820.81 10182.07,825.89"/>
        <lane id=":1879817582_4_1" index="1" disallow="tram rail_urban rail rail_electric rail_fast ship" speed="27.78" length="23.47" shape="10167.67,807.44 10172.92,812.01 10176.47,815.21 10179.82,818.60 10184.47,823.78"/>
        <lane id=":1879817582_4_2" index="2" disallow="tram rail_urban rail rail_electric rail_fast ship" speed="27.78" length="23.47" shape="10169.77,805.03 10175.12,809.68 10178.73,812.94 10182.13,816.39 10186.87,821.66"/>
    </edge>
    <edge id=":1879817582_7" function="internal">
        <lane id=":1879817582_7_0" index="0" disallow="tram rail_urban rail rail_electric rail_fast ship" speed="5.79" length="12.33" shape="10169.77,805.03 10173.49,807.85 10175.73,808.53 10176.51,807.07 10175.81,803.46"/>
    </edge>
    <edge id=":1879817582_8" function="internal">
        <lane id=":1879817582_8_0" index="0" disallow="tram rail_urban rail rail_electric rail_fast ship" speed="13.89" length="21.36" shape="10172.75,804.40 10173.58,809.08 10173.81,815.06 10173.37,820.98 10172.18,825.51"/>
    </edge>
    <edge id=":1879817582_9" function="internal">
        <lane id=":1879817582_9_0" index="0" disallow="tram rail_urban rail rail_electric rail_fast ship" speed="20.84" length="22.42" shape="10172.75,804.40 10174.54,807.94 10177.59,811.69 10181.76,816.11 10186.87,821.66"/>
    </edge>
    <edge id=":1879817582_10" function="internal">
        <lane id=":1879817582_10_0" index="0" disallow="tram rail_urban rail rail_electric rail_fast ship" speed="3.65" length="4.67" shape="10172.75,804.40 10173.87,805.31 10174.75,805.46 10175.40,804.85 10175.81,803.46"/>
    </edge>
    <edge id=":1879817614_0" function="internal">
        <lane id=":1879817614_0_0" index="0" disallow="tram rail_urban rail rail_electric rail_fast ship" speed="27.78" length="0.69" shape="10824.23,849.84 10823.90,849.91 10823.67,849.96 10823.44,850.03 10823.12,850.14"/>
        <lane id=":1879817614_0_1" index="1" disallow="tram rail_urban rail rail_electric rail_fast ship" speed="27.78" length="0.69" shape="10824.85,852.98 10824.64,853.02 10824.51,853.06 10824.37,853.10 10824.18,853.16"/>
        <lane id=":1879817614_0_2" index="2" disallow="tram rail_urban rail rail_electric rail_fast ship" speed="27.78" length="0.69" shape="10825.46,856.12 10825.39,856.14 10825.35,856.15 10825.30,856.16 10825.24,856.18"/>
    </edge>
    <edge id=":1879817616_0" function="internal">
        <lane id=":1879817616_0_0" index="0" disallow="tram rail_urban rail rail_electric rail_fast ship" speed="22.22" length="9.62" shape="10782.95,854.04 10780.25,854.97 10778.42,855.66 10776.64,856.45 10774.07,857.70"/>
    </edge>
    <edge id=":1879817616_1" function="internal">
        <lane id=":1879817616_1_0" index="0" disallow="tram rail_urban rail rail_electric rail_fast ship" speed="6.07" length="7.98" shape="10782.95,854.04 10780.39,855.14 10778.73,856.38 10777.99,857.76 10778.16,859.30"/>
    </edge>
    <edge id=":1879817616_2" function="internal">
        <lane id=":1879817616_2_0" index="0" disallow="tram rail_urban rail rail_electric rail_fast ship" speed="6.00" length="8.01" shape="10781.14,858.15 10780.22,856.89 10778.74,856.39 10776.69,856.66 10774.07,857.70"/>
    </edge>
    <edge id=":1879817616_3" function="internal">
        <lane id=":1879817616_3_0" index="0" disallow="tram rail_urban rail rail_electric rail_fast ship" speed="3.65" length="4.67" shape="10781.14,858.15 10779.96,857.32 10779.07,857.23 10778.47,857.89 10778.16,859.30"/>
    </edge>
    <edge id=":1879817619_0" function="internal">
        <lane id=":1879817619_0_0" index="0" disallow="tram rail_urban rail rail_electric rail_fast ship" speed="27.78" length="0.44" shape="10825.72,869.54 10825.76,869.53 10825.79,869.52 10825.82,869.51 10825.86,869.50"/>
        <lane id=":1879817619_0_1" index="1" disallow="tram rail_urban rail rail_electric rail_fast ship" speed="27.78" length="0.44" shape="10824.81,866.47 10824.94,866.43 10825.02,866.41 10825.11,866.39 10825.24,866.36"/>
        <lane id=":1879817619_0_2" index="2" disallow="tram rail_urban rail rail_electric rail_fast ship" speed="27.78" length="0.44" shape="10823.90,863.40 10824.11,863.34 10824.26,863.30 10824.41,863.27 10824.62,863.23"/>
    </edge>
    <edge id=":1879817626_0" function="internal">
        <lane id=":1879817626_0_0" index="0" disallow="tram rail_urban rail rail_electric rail_fast ship" speed="20.84" length="3.16" shape="10267.04,885.69 10266.42,884.99 10266.01,884.50 10265.62,883.99 10265.07,883.23"/>
    </edge>
    <edge id=":1879817626_1" function="internal">
        <lane id=":1879817626_1_0" index="0" disallow="tram rail_urban rail rail_electric rail_fast ship" speed="27.78" length="3.16" shape="10264.63,887.81 10262.55,885.44"/>
        <lane id=":1879817626_1_1" index="1" disallow="tram rail_urban rail rail_electric rail_fast ship" speed="27.78" length="3.16" shape="10262.23,889.92 10260.15,887.56"/>