<?xml version="1.0" encoding="UTF-8"?>

<!-- generated on 2021-12-05 23:36:05 by Eclipse SUMO duarouter Version 1.9.2
<configuration xmlns:xsi="http://www.w3.org/2001/XMLSchema-instance" xsi:noNamespaceSchemaLocation="http://sumo.dlr.de/xsd/duarouterConfiguration.xsd">

    <input>
        <net-file value="C:\Users\saurabh\Sumo\2021-12-05-23-35-59\osm.net.xml"/>
        <route-files value="C:\Users\saurabh\Sumo\2021-12-05-23-35-59\osm.passenger.trips.xml"/>
    </input>

    <output>
        <output-file value="C:\Users\saurabh\Sumo\2021-12-05-23-35-59\osm.passenger.trips.xml.tmp"/>
        <write-trips value="true"/>
    </output>

    <time>
        <begin value="0"/>
        <end value="3600"/>
    </time>

    <report>
        <no-warnings value="true"/>
        <ignore-errors value="true"/>
        <no-step-log value="true"/>
    </report>

</configuration>
-->

<routes xmlns:xsi="http://www.w3.org/2001/XMLSchema-instance" xsi:noNamespaceSchemaLocation="http://sumo.dlr.de/xsd/routes_file.xsd">
    <vType id="veh_passenger" vClass="passenger"/>
    <trip id="veh0" type="veh_passenger" depart="0.00" departLane="best" from="22843276#0" to="-185467797#0"/>
    <trip id="veh1" type="veh_passenger" depart="5.36" departLane="best" from="-672838526#2" to="-52664437#1"/>
    <trip id="veh2" type="veh_passenger" depart="10.72" departLane="best" from="273833832#5" to="22843425#0"/>
    <trip id="veh3" type="veh_passenger" depart="16.08" departLane="best" from="177566523#5" to="-185467797#2"/>
    <trip id="veh4" type="veh_passenger" depart="21.44" departLane="best" from="-52663744#3" to="177566541"/>
    <trip id="veh5" type="veh_passenger" depart="26.80" departLane="best" departSpeed="max" from="22856174#0" to="177566556#5"/>
    <trip id="veh6" type="veh_passenger" depart="32.16" departLane="best" from="-52663746" to="177566559#3"/>
    <trip id="veh7" type="veh_passenger" depart="37.52" departLane="best" from="104902792#4" to="-439108075"/>
    <trip id="veh8" type="veh_passenger" depart="42.88" departLane="best" from="692042225" to="104902792#3"/>
    <trip id="veh9" type="veh_passenger" depart="48.25" departLane="best" from="52514845#0" to="177566566"/>
    <trip id="veh10" type="veh_passenger" depart="53.61" departLane="best" from="439108069#2" to="273833832#6"/>
    <trip id="veh11" type="veh_passenger" depart="58.97" departLane="best" from="177566559#1" to="723323006#3"/>
    <trip id="veh13" type="veh_passenger" depart="69.69" departLane="best" from="439272706#0" to="185467797#0"/>
    <trip id="veh16" type="veh_passenger" depart="85.77" departLane="best" from="-22843276#1" to="-547023629#1"/>
    <trip id="veh17" type="veh_passenger" depart="91.13" departLane="best" from="-366913701#0" to="-686142690"/>
    <trip id="veh18" type="veh_passenger" depart="96.49" departLane="best" from="22843199" to="177566523#10"/>
    <trip id="veh19" type="veh_passenger" depart="101.85" departLane="best" departSpeed="max" from="22856174#0" to="177566572#2"/>
    <trip id="veh20" type="veh_passenger" depart="107.21" departLane="best" from="-52511313#1" to="273833832#6"/>
    <trip id="veh21" type="veh_passenger" depart="112.57" departLane="best" from="-439272706#1" to="177566523#11"/>
    <trip id="veh24" type="veh_passenger" depart="128.65" departLane="best" from="52511313#1" to="366913701#7"/>
    <trip id="veh25" type="veh_passenger" depart="134.02" departLane="best" from="-52664437#2" to="-185467797#3"/>
    <trip id="veh26" type="veh_passenger" depart="139.38" departLane="best" from="-778465702#1" to="-672838526#0"/>
    <trip id="veh27" type="veh_passenger" depart="144.74" departLane="best" from="-52663744#0" to="672838526#1"/>
    <trip id="veh28" type="veh_passenger" depart="150.10" departLane="best" from="52514847#0" to="-787061030"/>
    <trip id="veh29" type="veh_passenger" depart="155.46" departLane="best" departSpeed="max" from="22856174#0" to="177566523#13"/>
    <trip id="veh30" type="veh_passenger" depart="160.82" departLane="best" from="556314750#2" to="177566523#6"/>
    <trip id="veh31" type="veh_passenger" depart="166.18" departLane="best" from="-622415793#1" to="-556314750#4"/>
    <trip id="veh32" type="veh_passenger" depart="171.54" departLane="best" departSpeed="max" from="177566572#0" to="-622415793#1"/>
    <trip id="veh33" type="veh_passenger" depart="176.90" departLane="best" from="185467797#0" to="52664437#1"/>
    <trip id="veh34" type="veh_passenger" depart="182.26" departLane="best" from="177566523#2-AddedOnRampEdge" to="-52663746"/>
    <trip id="veh35" type="veh_passenger" depart="187.62" departLane="best" from="992408934" to="177566541"/>
    <trip id="veh37" type="veh_passenger" depart="198.34" departLane="best" from="366913701#9" to="177566523#13"/>
    <trip id="veh38" type="veh_passenger" depart="203.70" departLane="best" from="-215261415" to="177566523#12"/>
    <trip id="veh39" type="veh_passenger" depart="209.06" departLane="best" from="959543451" to="177566556#0"/>
    <trip id="veh40" type="veh_passenger" depart="214.42" departLane="best" from="723323006#2" to="52514846#1"/>
    <trip id="veh41" type="veh_passenger" depart="219.78" departLane="best" from="-104902792#4" to="273833832#4"/>
    <trip id="veh42" type="veh_passenger" depart="225.15" departLane="best" departSpeed="max" from="273833832#0" to="177566556#3"/>
    <trip id="veh44" type="veh_passenger" depart="235.87" departLane="best" from="-366913701#4" to="177566523#2-AddedOnRampEdge"/>
    <trip id="veh45" type="veh_passenger" depart="241.23" departLane="best" from="177566523#9" to="686605955"/>
    <trip id="veh46" type="veh_passenger" depart="246.59" departLane="best" from="177566556#2" to="-52514845#1"/>
    <trip id="veh47" type="veh_passenger" depart="251.95" departLane="best" from="556314750#1" to="52514846#4"/>
    <trip id="veh50" type="veh_passenger" depart="268.03" departLane="best" from="366913700#2" to="177566556#4"/>
    <trip id="veh51" type="veh_passenger" depart="273.39" departLane="best" from="366913701#4" to="177566556#0"/>
    <trip id="veh52" type="veh_passenger" depart="278.75" departLane="best" from="-104902792#0" to="-992408934"/>
    <trip id="veh53" type="veh_passenger" depart="284.11" departLane="best" from="-104902793" to="622415769#0"/>
    <trip id="veh54" type="veh_passenger" depart="289.47" departLane="best" from="52514847#1" to="483187902#1"/>
    <trip id="veh55" type="veh_passenger" depart="294.83" departLane="best" from="-723552318#1" to="-215261394#1"/>
    <trip id="veh56" type="veh_passenger" depart="300.19" departLane="best" from="52514847#1" to="672840525"/>
    <trip id="veh58" type="veh_passenger" depart="310.91" departLane="best" from="-22843127#1" to="366913701#1"/>
    <trip id="veh60" type="veh_passenger" depart="321.64" departLane="best" from="177566523#5" to="-52663744#1"/>
    <trip id="veh61" type="veh_passenger" depart="327.00" departLane="best" from="177566559#2" to="273833832#6"/>
    <trip id="veh62" type="veh_passenger" depart="332.36" departLane="best" from="959543451" to="215261394#0"/>
    <trip id="veh63" type="veh_passenger" depart="337.72" departLane="best" from="177566523#7" to="177566541"/>
    <trip id="veh64" type="veh_passenger" depart="343.08" departLane="best" from="-366913701#8" to="-52664437#1"/>
    <trip id="veh65" type="veh_passenger" depart="348.44" departLane="best" from="-547023629#0" to="-52663746"/>
    <trip id="veh66" type="veh_passenger" depart="353.80" departLane="best" from="-22843127#1" to="195072878#0"/>
    <trip id="veh67" type="veh_passenger" depart="359.16" departLane="best" from="-52664437#2" to="547023629#1"/>
    <trip id="veh68" type="veh_passenger" depart="364.52" departLane="best" from="-556314750#0" to="22843199"/>
    <trip id="veh70" type="veh_passenger" depart="375.24" departLane="best" from="439108069#2" to="-52514846#2"/>
    <trip id="veh71" type="veh_passenger" depart="380.60" departLane="best" from="-366913700#3" to="177566523#2"/>
    <trip id="veh72" type="veh_passenger" depart="385.96" departLane="best" from="177566523#6" to="177566523#7"/>
    <trip id="veh73" type="veh_passenger" depart="391.32" departLane="best" from="778465702#0" to="-366913700#4"/>
    <trip id="veh74" type="veh_passenger" depart="396.68" departLane="best" from="177566523#2-AddedOnRampEdge" to="104902792#5"/>
    <trip id="veh75" type="veh_passenger" depart="402.05" departLane="best" from="52514846#1" to="-568771388#0"/>
    <trip id="veh76" type="veh_passenger" depart="407.41" departLane="best" from="-52514846#1" to="177566523#4"/>
    <trip id="veh77" type="veh_passenger" depart="412.77" departLane="best" from="177566523#5" to="-686605955"/>
    <trip id="veh78" type="veh_passenger" depart="418.13" departLane="best" from="-556314750#4" to="568771388#0"/>
    <trip id="veh79" type="veh_passenger" depart="423.49" departLane="best" from="177566559#6" to="-215261251#0"/>
    <trip id="veh80" type="veh_passenger" depart="428.85" departLane="best" from="992408934" to="483187902#1"/>
    <trip id="veh81" type="veh_passenger" depart="434.21" departLane="best" from="52514845#0" to="-439272706#2"/>
    <trip id="veh82" type="veh_passenger" depart="439.57" departLane="best" departSpeed="max" from="177566537" to="-52663744#2"/>
    <trip id="veh83" type="veh_passenger" depart="444.93" departLane="best" from="177566523#2-AddedOnRampEdge" to="-215261394#2"/>
    <trip id="veh85" type="veh_passenger" depart="455.65" departLane="best" from="177566523#9" to="177566523#13"/>
    <trip id="veh86" type="veh_passenger" depart="461.01" departLane="best" from="692042225" to="959543451"/>
    <trip id="veh89" type="veh_passenger" depart="477.09" departLane="best" from="723323006#1" to="177566558#8"/>
    <trip id="veh91" type="veh_passenger" depart="487.81" departLane="best" from="177566556#3" to="52514845#1"/>
    <trip id="veh93" type="veh_passenger" depart="498.54" departLane="best" from="-547023629#2" to="-366913701#8"/>
    <trip id="veh94" type="veh_passenger" depart="503.90" departLane="best" from="52663744#3" to="-556314750#4"/>
    <trip id="veh95" type="veh_passenger" depart="509.26" departLane="best" from="177566523#5" to="177566559#1"/>
    <trip id="veh96" type="veh_passenger" depart="514.62" departLane="best" from="177566558#4" to="622415793#1"/>
    <trip id="veh97" type="veh_passenger" depart="519.98" departLane="best" from="-52514847#0" to="273833832#4"/>
    <trip id="veh98" type="veh_passenger" depart="525.34" departLane="best" from="-556314750#0" to="177566523#13"/>
    <trip id="veh99" type="veh_passenger" depart="530.70" departLane="best" departSpeed="max" from="273833832#0" to="-723323006#3"/>
    <trip id="veh100" type="veh_passenger" depart="536.06" departLane="best" from="-778465702#1" to="366913700#2"/>
    <trip id="veh101" type="veh_passenger" depart="541.42" departLane="best" from="992408934" to="959543451"/>
    <trip id="veh102" type="veh_passenger" depart="546.78" departLane="best" from="-22843134" to="-52663744#2"/>
    <trip id="veh103" type="veh_passenger" depart="552.14" departLane="best" from="177566523#10" to="-439272705"/>
    <trip id="veh104" type="veh_passenger" depart="557.50" departLane="best" from="439272706#1" to="273833832#2"/>
    <trip id="veh105" type="veh_passenger" depart="562.86" departLane="best" departSpeed="max" from="22856174#0" to="-104902792#3"/>
    <trip id="veh106" type="veh_passenger" depart="568.22" departLane="best" from="439108071#1" to="-723323006#3"/>
    <trip id="veh107" type="veh_passenger" depart="573.58" departLane="best" departSpeed="max" from="273833832#0" to="622415793#2"/>
    <trip id="veh108" type="veh_passenger" depart="578.95" departLane="best" from="-439108069#0" to="-366913701#6"/>
    <trip id="veh109" type="veh_passenger" depart="584.31" departLane="best" from="-366913701#2" to="177566556#5"/>
    <trip id="veh110" type="veh_passenger" depart="589.67" departLane="best" from="-672838526#1" to="177566566"/>
    <trip id="veh111" type="veh_passenger" depart="595.03" departLane="best" departSpeed="max" from="177566537" to="547023629#1"/>
    <trip id="veh112" type="veh_passenger" depart="600.39" departLane="best" from="52511313#2" to="-366913700#2"/>
    <trip id="veh113" type="veh_passenger" depart="605.75" departLane="best" from="177566523#6" to="-686142690"/>
    <trip id="veh114" type="veh_passenger" depart="611.11" departLane="best" from="-104902792#1" to="366913701#5"/>
    <trip id="veh115" type="veh_passenger" depart="616.47" departLane="best" from="22843199" to="-622415793#1"/>
    <trip id="veh116" type="veh_passenger" depart="621.83" departLane="best" from="273833832#6" to="177566556#5"/>
    <trip id="veh117" type="veh_passenger" depart="627.19" departLane="best" from="177566523#6" to="-104902792#3"/>
    <trip id="veh118" type="veh_passenger" depart="632.55" departLane="best" from="-22843199" to="52663744#0"/>
    <trip id="veh119" type="veh_passenger" depart="637.91" departLane="best" from="547023629#1" to="177566556#5"/>
    <trip id="veh120" type="veh_passenger" depart="643.27" departLane="best" from="439272706#2" to="177566559#1"/>
    <trip id="veh122" type="veh_passenger" depart="653.99" departLane="best" from="-723552318#1" to="52664437#2"/>
    <trip id="veh124" type="veh_passenger" depart="664.71" departLane="best" from="52664437#2" to="-52663744#0"/>
    <trip id="veh125" type="veh_passenger" depart="670.08" departLane="best" from="-556314750#4" to="-366913701#1"/>
    <trip id="veh126" type="veh_passenger" depart="675.44" departLane="best" from="177566523#2-AddedOnRampEdge" to="185467797#1"/>
    <trip id="veh128" type="veh_passenger" depart="686.16" departLane="best" from="52514846#2" to="723323006#4"/>
    <trip id="veh129" type="veh_passenger" depart="691.52" departLane="best" from="439108069#3" to="52663744#0"/>
    <trip id="veh130" type="veh_passenger" depart="696.88" departLane="best" from="-185467797#0" to="273833832#6"/>
    <trip id="veh131" type="veh_passenger" depart="702.24" departLane="best" from="104902792#1" to="622415769#1"/>
    <trip id="veh132" type="veh_passenger" depart="707.60" departLane="best" from="439108069#0" to="52514846#2"/>
    <trip id="veh133" type="veh_passenger" depart="712.96" departLane="best" from="439108069#3" to="-672838526#0"/>
    <trip id="veh134" type="veh_passenger" depart="718.32" departLane="best" from="366913701#7" to="-366913701#3"/>
    <trip id="veh135" type="veh_passenger" depart="723.68" departLane="best" from="-52664437#0" to="439272705"/>
    <trip id="veh136" type="veh_passenger" depart="729.04" departLane="best" departSpeed="max" from="177566537" to="-723552318#1"/>
    <trip id="veh138" type="veh_passenger" depart="739.76" departLane="best" from="-992408934" to="52514846#2"/>
    <trip id="veh139" type="veh_passenger" depart="745.12" departLane="best" from="723323006#1" to="-686605955"/>
    <trip id="veh140" type="veh_passenger" depart="750.48" departLane="best" from="22843276#1" to="177566523#13"/>
    <trip id="veh141" type="veh_passenger" depart="755.85" departLane="best" from="723552318#2" to="177566556#2"/>
    <trip id="veh142" type="veh_passenger" depart="761.21" departLane="best" from="672838526#0" to="-366913701#6"/>
    <trip id="veh143" type="veh_passenger" depart="766.57" departLane="best" from="723323006#2" to="-52514845#1"/>
    <trip id="veh145" type="veh_passenger" depart="777.29" departLane="best" from="-366913701#3" to="177566523#2-AddedOnRampEdge"/>
    <trip id="veh146" type="veh_passenger" depart="782.65" departLane="best" from="273833832#4" to="-778465702#1"/>
    <trip id="veh148" type="veh_passenger" depart="793.37" departLane="best" from="-568771388#1" to="273833832#3"/>
    <trip id="veh149" type="veh_passenger" depart="798.73" departLane="best" from="-104902792#0" to="568771388#1"/>
    <trip id="veh150" type="veh_passenger" depart="804.09" departLane="best" from="177566559#2" to="273833832#4"/>
    <trip id="veh151" type="veh_passenger" depart="809.45" departLane="best" from="273833832#6" to="22843199"/>
    <trip id="veh152" type="veh_passenger" depart="814.81" departLane="best" from="177566523#1" to="-22843127#1"/>
    <trip id="veh153" type="veh_passenger" depart="820.17" departLane="best" departSpeed="max" from="273833832#0" to="104902792#1"/>
    <trip id="veh154" type="veh_passenger" depart="825.53" departLane="best" from="-778465702#1" to="52511313#2"/>
    <trip id="veh155" type="veh_passenger" depart="830.89" departLane="best" from="273833832#3" to="-723323006#3"/>
    <trip id="veh156" type="veh_passenger" depart="836.25" departLane="best" from="-723552318#2" to="177566523#13"/>
    <trip id="veh157" type="veh_passenger" depart="841.61" departLane="best" from="177566523#2-AddedOnRampEdge" to="-723323006#1"/>
    <trip id="veh159" type="veh_passenger" depart="852.34" departLane="best" from="672838526#0" to="22843425#0"/>
    <trip id="veh160" type="veh_passenger" depart="857.70" departLane="best" from="-723323006#2" to="177566556#5"/>
    <trip id="veh161" type="veh_passenger" depart="863.06" departLane="best" from="-104902792#0" to="-699397460"/>
    <trip id="veh162" type="veh_passenger" depart="868.42" departLane="best" from="177566523#6" to="177566559#0"/>
    <trip id="veh163" type="veh_passenger" depart="873.78" departLane="best" departSpeed="max" from="22856174#0" to="177566523#6"/>
    <trip id="veh164" type="veh_passenger" depart="879.14" departLane="best" departSpeed="max" from="177566537" to="52664437#2"/>
    <trip id="veh167" type="veh_passenger" depart="895.22" departLane="best" from="22843134" to="104902792#3"/>
    <trip id="veh168" type="veh_passenger" depart="900.58" departLane="best" departSpeed="max" from="273833832#0" to="-52664437#1"/>
    <trip id="veh169" type="veh_passenger" depart="905.94" departLane="best" from="-52514846#5" to="-185467797#0"/>
    <trip id="veh170" type="veh_passenger" depart="911.30" departLane="best" from="-556314750#2" to="177566523#7"/>
    <trip id="veh171" type="veh_passenger" depart="916.66" departLane="best" from="177566523#4" to="185467797#4"/>
    <trip id="veh172" type="veh_passenger" depart="922.02" departLane="best" from="-52514846#3" to="273833832#1"/>
    <trip id="veh173" type="veh_passenger" depart="927.38" departLane="best" departSpeed="max" from="177566537" to="-556314750#3"/>
    <trip id="veh174" type="veh_passenger" depart="932.74" departLane="best" departSpeed="max" from="22856174#0" to="-104902792#2"/>
    <trip id="veh176" type="veh_passenger" depart="943.47" departLane="best" from="-366913701#2" to="177566523#13"/>
    <trip id="veh177" type="veh_passenger" depart="948.83" departLane="best" from="-52511313#2" to="692042225"/>
    <trip id="veh178" type="veh_passenger" depart="954.19" departLane="best" from="177566558#3" to="-215261251#0"/>
    <trip id="veh179" type="veh_passenger" depart="959.55" departLane="best" from="-556314750#4" to="52514845#0"/>
    <trip id="veh180" type="veh_passenger" depart="964.91" departLane="best" from="177566523#9" to="439108069#4"/>
    <trip id="veh181" type="veh_passenger" depart="970.27" departLane="best" departSpeed="max" from="273833832#0" to="787061030"/>
    <trip id="veh182" type="veh_passenger" depart="975.63" departLane="best" from="185467797#4" to="686142690"/>
    <trip id="veh183" type="veh_passenger" depart="980.99" departLane="best" from="52663746" to="177566572#3"/>
    <trip id="veh184" type="veh_passenger" depart="986.35" departLane="best" from="273833832#3" to="177566541"/>
    <trip id="veh185" type="veh_passenger" depart="991.71" departLane="best" from="439272706#0" to="177566556#5"/>
    <trip id="veh186" type="veh_passenger" depart="997.07" departLane="best" from="52664437#1" to="273833832#7"/>
    <trip id="veh187" type="veh_passenger" depart="1002.43" departLane="best" departSpeed="max" from="177566537" to="-622415793#0"/>
    <trip id="veh189" type="veh_passenger" depart="1013.15" departLane="best" from="366913700#4" to="177566541"/>
    <trip id="veh190" type="veh_passenger" depart="1018.51" departLane="best" from="22843125" to="-672840525"/>
    <trip id="veh191" type="veh_passenger" depart="1023.88" departLane="best" from="-22843276#0" to="-692042225"/>
    <trip id="veh192" type="veh_passenger" depart="1029.24" departLane="best" from="-672838526#1" to="-935240391"/>
    <trip id="veh193" type="veh_passenger" depart="1034.60" departLane="best" from="-547023629#0" to="273833832#1"/>
    <trip id="veh194" type="veh_passenger" depart="1039.96" departLane="best" from="273833832#1" to="-22843125"/>
    <trip id="veh195" type="veh_passenger" depart="1045.32" departLane="best" from="177566523#2-AddedOnRampEdge" to="177566556#5"/>
    <trip id="veh196" type="veh_passenger" depart="1050.68" departLane="best" from="177566523#4" to="-52514847#1"/>
    <trip id="veh197" type="veh_passenger" depart="1056.04" departLane="best" from="177566572#4" to="273833832#1"/>
    <trip id="veh198" type="veh_passenger" depart="1061.40" departLane="best" from="52514845#3" to="366913701#3"/>
    <trip id="veh200" type="veh_passenger" depart="1072.12" departLane="best" from="151850835" to="366913700#3"/>
    <trip id="veh201" type="veh_passenger" depart="1077.48" departLane="best" from="52514845#2" to="686605955"/>
    <trip id="veh202" type="veh_passenger" depart="1082.84" departLane="best" from="177566523#5" to="366913700#1"/>
    <trip id="veh203" type="veh_passenger" depart="1088.20" departLane="best" from="177566559#5" to="177566566"/>
    <trip id="veh204" type="veh_passenger" depart="1093.56" departLane="best" from="-52663746" to="-52663746"/>
    <trip id="veh205" type="veh_passenger" depart="1098.92" departLane="best" from="104902792#2" to="22843425#2"/>
    <trip id="veh208" type="veh_passenger" depart="1115.01" departLane="best" from="-439108069#1" to="177566523#6"/>
    <trip id="veh209" type="veh_passenger" depart="1120.37" departLane="best" from="-215261251#0" to="177566523#11"/>
    <trip id="veh210" type="veh_passenger" depart="1125.73" departLane="best" from="-52663744#0" to="104902792#0"/>
    <trip id="veh211" type="veh_passenger" depart="1131.09" departLane="best" from="366913700#2" to="177566523#11"/>
    <trip id="veh213" type="veh_passenger" depart="1141.81" departLane="best" from="-568771388#0" to="-22843425#1"/>
    <trip id="veh214" type="veh_passenger" depart="1147.17" departLane="best" from="-104902793" to="177566556#4"/>
    <trip id="veh216" type="veh_passenger" depart="1157.89" departLane="best" departSpeed="max" from="22856174#0" to="366913701#9"/>
    <trip id="veh217" type="veh_passenger" depart="1163.25" departLane="best" departSpeed="max" from="22856174#0" to="366913700#3"/>
    <trip id="veh218" type="veh_passenger" depart="1168.61" departLane="best" from="686142690" to="-52514846#5"/>
    <trip id="veh219" type="veh_passenger" depart="1173.97" departLane="best" from="-104902793" to="-439108074"/>
    <trip id="veh221" type="veh_passenger" depart="1184.69" departLane="best" departSpeed="max" from="177566572#0" to="-52663746"/>
    <trip id="veh222" type="veh_passenger" depart="1190.05" departLane="best" departSpeed="max" from="273833832#0" to="366913701#3"/>
    <trip id="veh225" type="veh_passenger" depart="1206.14" departLane="best" from="439108071#2" to="723323006#0"/>
    <trip id="veh226" type="veh_passenger" depart="1211.50" departLane="best" from="-366913701#3" to="-185467797#1"/>
    <trip id="veh227" type="veh_passenger" depart="1216.86" departLane="best" from="-778465702#0" to="22843425#0"/>
    <trip id="veh228" type="veh_passenger" depart="1222.22" departLane="best" from="692042225" to="177566523#13"/>
    <trip id="veh229" type="veh_passenger" depart="1227.58" departLane="best" from="273833832#2" to="-22843276#0"/>
    <trip id="veh230" type="veh_passenger" depart="1232.94" departLane="best" departSpeed="max" from="273833832#0" to="185467797#3"/>
    <trip id="veh231" type="veh_passenger" depart="1238.30" departLane="best" from="-366913701#0" to="366913701#6"/>
    <trip id="veh232" type="veh_passenger" depart="1243.66" departLane="best" from="52514845#1" to="177566559#8"/>
    <trip id="veh233" type="veh_passenger" depart="1249.02" departLane="best" from="-366913701#8" to="778465702#0"/>
    <trip id="veh235" type="veh_passenger" depart="1259.74" departLane="best" from="177566523#6" to="177566523#10"/>
    <trip id="veh236" type="veh_passenger" depart="1265.10" departLane="best" from="177566556#4" to="104902792#5"/>
    <trip id="veh237" type="veh_passenger" depart="1270.46" departLane="best" from="52514845#1" to="439272706#1"/>
    <trip id="veh238" type="veh_passenger" depart="1275.82" departLane="best" from="22843199" to="483187902#1"/>
    <trip id="veh239" type="veh_passenger" depart="1281.18" departLane="best" from="273833832#1" to="177566523#2-AddedOnRampEdge"/>
    <trip id="veh240" type="veh_passenger" depart="1286.54" departLane="best" from="273833832#5" to="723323006#0"/>
    <trip id="veh241" type="veh_passenger" depart="1291.91" departLane="best" from="-672838526#0" to="439108071#2"/>
    <trip id="veh242" type="veh_passenger" depart="1297.27" departLane="best" from="177566523#7" to="273833832#6"/>
    <trip id="veh243" type="veh_passenger" depart="1302.63" departLane="best" from="-672838526#0" to="52514845#1"/>
    <trip id="veh244" type="veh_passenger" depart="1307.99" departLane="best" from="439272706#0" to="-366913700#0"/>
    <trip id="veh245" type="veh_passenger" depart="1313.35" departLane="best" from="52663744#0" to="-556314750#3"/>
    <trip id="veh246" type="veh_passenger" depart="1318.71" departLane="best" departSpeed="max" from="177566537" to="177566572#3"/>
    <trip id="veh248" type="veh_passenger" depart="1329.43" departLane="best" from="-52663744#1" to="439108069#3"/>
    <trip id="veh249" type="veh_passenger" depart="1334.79" departLane="best" departSpeed="max" from="273833832#0" to="-686142690"/>
    <trip id="veh250" type="veh_passenger" depart="1340.15" departLane="best" from="-104902792#3" to="672840525"/>
    <trip id="veh252" type="veh_passenger" depart="1350.87" departLane="best" departSpeed="max" from="177566537" to="366913701#0"/>
    <trip id="veh253" type="veh_passenger" depart="1356.23" departLane="best" departSpeed="max" from="273833832#0" to="215261251#1"/>
    <trip id="veh254" type="veh_passenger" depart="1361.59" departLane="best" departSpeed="max" from="177566537" to="439108069#1"/>
    <trip id="veh255" type="veh_passenger" depart="1366.95" departLane="best" from="-366913700#2" to="-52664437#0"/>
    <trip id="veh256" type="veh_passenger" depart="1372.31" departLane="best" departSpeed="max" from="273833832#0" to="-723552318#1"/>
    <trip id="veh257" type="veh_passenger" depart="1377.68" departLane="best" from="177566572#3" to="177566523#7"/>
    <trip id="veh258" type="veh_passenger" depart="1383.04" departLane="best" from="177566558#8" to="177566523#2"/>
    <trip id="veh259" type="veh_passenger" depart="1388.40" departLane="best" from="273833832#6" to="104902792#1"/>
    <trip id="veh260" type="veh_passenger" depart="1393.76" departLane="best" from="273833832#1" to="-672838526#2"/>
    <trip id="veh261" type="veh_passenger" depart="1399.12" departLane="best" from="-568771388#0" to="-366913701#8"/>
    <trip id="veh262" type="veh_passenger" depart="1404.48" departLane="best" from="-52514846#2" to="-366913701#8"/>
    <trip id="veh263" type="veh_passenger" depart="1409.84" departLane="best" from="-52514845#3" to="-52663744#3"/>
    <trip id="veh264" type="veh_passenger" depart="1415.20" departLane="best" departSpeed="max" from="177566537" to="273833832#5"/>
    <trip id="veh265" type="veh_passenger" depart="1420.56" departLane="best" from="723323006#4" to="177566541"/>
    <trip id="veh266" type="veh_passenger" depart="1425.92" departLane="best" from="-686605955" to="-366913701#0"/>
    <trip id="veh267" type="veh_passenger" depart="1431.28" departLane="best" from="-52514846#3" to="-52664437#2"/>
    <trip id="veh268" type="veh_passenger" depart="1436.64" departLane="best" from="177566559#0" to="-672840525"/>
    <trip id="veh269" type="veh_passenger" depart="1442.00" departLane="best" from="723323006#3" to="177566556#5"/>
    <trip id="veh271" type="veh_passenger" depart="1452.72" departLane="best" from="52514846#4" to="177566523#9"/>
    <trip id="veh272" type="veh_passenger" depart="1458.08" departLane="best" from="52514846#6" to="177566558#6"/>
    <trip id="veh273" type="veh_passenger" depart="1463.44" departLane="best" departSpeed="max" from="177566537" to="177566523#2-AddedOnRampEdge"/>
    <trip id="veh274" type="veh_passenger" depart="1468.81" departLane="best" from="-52514845#3" to="-215261251#1"/>
    <trip id="veh275" type="veh_passenger" depart="1474.17" departLane="best" from="672838526#0" to="177566523#8"/>
    <trip id="veh276" type="veh_passenger" depart="1479.53" departLane="best" from="439108074" to="177566523#13"/>
    <trip id="veh277" type="veh_passenger" depart="1484.89" departLane="best" from="-22843199" to="185467797#4"/>
    <trip id="veh279" type="veh_passenger" depart="1495.61" departLane="best" departSpeed="max" from="177566572#0" to="-723552318#1"/>
    <trip id="veh281" type="veh_passenger" depart="1506.33" departLane="best" from="366913701#8" to="-52664437#2"/>
    <trip id="veh282" type="veh_passenger" depart="1511.69" departLane="best" from="931257879" to="-723552318#1"/>
    <trip id="veh284" type="veh_passenger" depart="1522.41" departLane="best" from="-52514847#1" to="-52663744#1"/>
    <trip id="veh285" type="veh_passenger" depart="1527.77" departLane="best" departSpeed="max" from="22856174#0" to="-439272705"/>
    <trip id="veh286" type="veh_passenger" depart="1533.13" departLane="best" from="-52511313#2" to="-22843199"/>
    <trip id="veh287" type="veh_passenger" depart="1538.49" departLane="best" from="-104902792#1" to="177566523#4"/>