<?xml version="1.0" encoding="UTF-8"?>

<!-- generated on 2021-12-17 02:47:24 by Eclipse SUMO polyconvert Version 1.9.2
<configuration xmlns:xsi="http://www.w3.org/2001/XMLSchema-instance" xsi:noNamespaceSchemaLocation="http://sumo.dlr.de/xsd/polyconvertConfiguration.xsd">

    <input>
        <net-file value="osm.net.xml"/>
        <osm-files value="osm_bbox.osm.xml"/>
        <osm.keep-full-type value="true"/>
        <type-file value="C:\Program%20Files%20(x86)\Eclipse\Sumo\data\typemap\osmPolyconvert.typ.xml"/>
    </input>

    <output>
        <output-file value="osm.poly.xml"/>
    </output>

    <processing>
        <poi-layer-offset value="5"/>
    </processing>

    <report>
        <verbose value="true"/>
    </report>

</configuration>
-->

<additional xmlns:xsi="http://www.w3.org/2001/XMLSchema-instance" xsi:noNamespaceSchemaLocation="http://sumo.dlr.de/xsd/additional_file.xsd">
    <location netOffset="-270676.52,-2115352.71" convBoundary="0.00,-423.14,12818.81,2799.82" origBoundary="72.819690,19.115651,72.941679,19.143641" projParameter="+proj=utm +zone=43 +ellps=WGS84 +datum=WGS84 +units=m +no_defs"/>

    <poly id="177566574" type="landuse.residential" color="235,235,227" fill="1" layer="-3.00" shape="10261.540560,-84.300418 10298.817097,-24.300800 10343.368456,47.415295 10370.878429,156.083192 10424.254219,300.782390 10430.580987,365.468773 10388.187516,408.623823 10326.360727,354.076152 10304.904853,354.331677 10285.979667,432.749506 10392.719861,455.173050 10484.820183,516.468972 10461.305938,543.599081 10477.363159,585.825819 10461.711857,598.922371 10473.859146,630.079087 10525.198628,620.610285 10531.189784,649.160796 10511.349652,929.281654 10531.557690,930.347673 10525.589593,985.082488 10537.289828,985.773659 10548.495025,941.329097 10582.617257,938.110712 10576.688458,873.220284 10547.923110,878.235060 10565.166959,724.811888 10602.529241,714.369138 10587.280678,523.343685 10591.577995,505.056557 10594.018087,449.190136 10584.388038,336.788406 10495.418129,271.501888 10437.868427,242.955984 10424.622343,162.828644 10453.673735,88.896630 10435.405861,48.423462 10396.575383,11.671738 10335.169946,-15.344367 10319.946250,-46.730150 10300.408281,-75.396135 10282.380839,-143.364513 10185.505057,-313.664858 10168.007964,-360.037486 10171.292869,-416.478793 10142.417921,-423.143549 10134.845941,-395.272989 10132.356679,-367.462983 10133.348909,-331.002719 10154.040712,-270.019553 10243.745802,-115.046561 10261.540560,-84.300418"/>
    <poly id="353182374" type="building.yes" color="255,230,230" fill="1" layer="-1.00" shape="10389.095422,711.151785 10401.253036,711.350263 10401.404714,701.992386 10389.247094,701.793907 10389.095422,711.151785"/>
    <poly id="353182377" type="building.yes" color="255,230,230" fill="1" layer="-1.00" shape="10375.137206,684.357008 10389.614328,686.675880 10391.094876,677.556842 10376.617879,675.249039 10375.137206,684.357008"/>
    <poly id="353182379" type="building.yes" color="255,230,230" fill="1" layer="-1.00" shape="10462.646423,873.702832 10481.302389,876.990661 10483.503014,864.707464 10464.846905,861.408560 10462.646423,873.702832"/>
    <poly id="353182380" type="building.yes" color="255,230,230" fill="1" layer="-1.00" shape="10359.688268,736.525318 10371.963198,736.855245 10375.004572,706.802089 10363.855114,705.539756 10359.688268,736.525318"/>
    <poly id="353182383" type="building.yes" color="255,230,230" fill="1" layer="-1.00" shape="10386.755719,730.312535 10400.811616,731.728502 10401.791805,722.128242 10387.735769,720.701203 10386.755719,730.312535"/>
    <poly id="353182389" type="building.yes" color="255,230,230" fill="1" layer="-1.00" shape="10366.681938,679.563750 10375.178409,680.746956 10377.779091,662.291722 10369.293134,661.108389 10366.681938,679.563750"/>
    <poly id="353182392" type="building.yes" color="255,230,230" fill="1" layer="-1.00" shape="10316.341287,664.197076 10340.165239,671.054939 10345.493740,652.777583 10321.669768,645.919711 10316.341287,664.197076"/>
    <poly id="353182394" type="building.yes" color="255,230,230" fill="1" layer="-1.00" shape="10392.169393,683.833099 10403.259174,686.269822 10407.514538,667.130558 10396.424746,664.693831 10392.169393,683.833099"/>
    <poly id="353182403" type="building.yes" color="255,230,230" fill="1" layer="-1.00" shape="10329.728457,742.883316 10343.403671,743.262979 10343.567921,737.614161 10349.989692,737.792340 10350.219904,729.728981 10330.112515,729.182333 10329.728457,742.883316"/>
    <poly id="353182411" type="building.yes" color="255,230,230" fill="1" layer="-1.00" shape="9999.150905,521.690705 10006.832533,523.370651 10006.443276,525.146862 10013.776596,526.742387 10014.165986,524.977247 10021.826433,526.646380 10024.552433,514.312548 10001.887415,509.356743 9999.150905,521.690705"/>
    <poly id="353193443" type="building.yes" color="255,230,230" fill="1" layer="-1.00" shape="10446.708448,695.617934 10454.673241,696.342469 10456.053725,681.467050 10452.945751,681.182951 10453.578788,674.244175 10440.293507,673.029363 10439.519769,681.409210 10447.063140,682.094470 10446.485334,688.368253 10450.952428,688.780112 10450.701134,691.540098 10447.108466,691.206409 10446.708448,695.617934"/>
    <poly id="353193446" type="building.yes" color="255,230,230" fill="1" layer="-1.00" shape="10474.148075,796.702217 10484.072639,797.624877 10484.146672,796.771431 10490.762960,797.379160 10490.689058,798.243677 10501.498561,799.244391 10502.349116,790.243586 10496.575680,789.714399 10496.454568,791.033441 10490.733744,790.503629 10490.826978,789.494943 10474.960349,788.022961 10474.148075,796.702217"/>
    <poly id="353193463" type="building.yes" color="255,230,230" fill="1" layer="-1.00" shape="10030.767381,546.558461 10038.554485,548.259306 10039.123646,545.683746 10041.001826,546.093167 10040.432665,548.668727 10058.032758,552.511306 10058.382305,550.934872 10060.946436,551.502200 10060.607280,553.067438 10068.330976,554.746906 10070.208117,546.243147 10061.397548,544.321974 10061.218041,545.154537 10058.094888,544.483152 10058.274263,543.639519 10032.644506,538.054696 10030.767381,546.558461"/>
    <poly id="353193485" type="building.yes" color="255,230,230" fill="1" layer="-1.00" shape="10470.107806,772.025932 10480.185214,772.526026 10479.936197,777.245776 10483.621705,777.423354 10483.553337,778.752840 10497.200631,779.442969 10497.466217,774.346565 10500.593769,774.508642 10500.696454,772.525484 10505.519313,772.767035 10506.980573,744.338207 10497.882405,743.881804 10497.266823,755.825034 10500.668095,755.994926 10500.428014,760.581702 10497.479605,760.439637 10496.915829,771.430037 10482.141832,770.686884 10483.618303,741.770690 10472.909001,741.233825 10472.764776,744.147548 10474.102189,744.220207 10473.709738,751.920105 10471.150924,751.795552 10470.756629,759.340460 10472.441416,759.420056 10472.149539,764.959665 10470.475144,764.868873 10470.107806,772.025932"/>
    <poly id="353193492" type="building.yes" color="255,230,230" fill="1" layer="-1.00" shape="10440.169097,757.169030 10454.715965,758.280238 10455.609584,746.710151 10441.073230,745.598815 10440.169097,757.169030"/>
    <poly id="353193500" type="building.yes" color="255,230,230" fill="1" layer="-1.00" shape="10382.449387,793.774734 10389.378217,794.998753 10390.917558,786.399410 10383.988857,785.186461 10382.449387,793.774734"/>
    <poly id="353193505" type="building.yes" color="255,230,230" fill="1" layer="-1.00" shape="10443.555867,722.527864 10459.556847,723.787853 10460.893750,707.019595 10444.892888,705.770675 10443.555867,722.527864"/>
    <poly id="353193509" type="building.yes" color="255,230,230" fill="1" layer="-1.00" shape="10419.192059,777.271358 10433.199104,778.123241 10433.842562,767.641211 10419.846032,766.789202 10419.192059,777.271358"/>
    <poly id="353193510" type="building.yes" color="255,230,230" fill="1" layer="-1.00" shape="10413.904138,798.958468 10429.818899,800.053367 10430.546533,789.570334 10414.631763,788.475434 10413.904138,798.958468"/>
    <poly id="353193516" type="building.yes" color="255,230,230" fill="1" layer="-1.00" shape="10110.464131,533.982268 10114.155769,534.669029 10112.908707,541.294053 10127.981202,544.103892 10129.861733,534.116414 10111.097591,530.619812 10110.464131,533.982268"/>
    <poly id="353193518" type="building.yes" color="255,230,230" fill="1" layer="-1.00" shape="10359.174732,786.190595 10362.039487,786.377923 10361.762996,790.555464 10375.844355,791.461779 10376.510933,781.156624 10359.575465,780.073926 10359.174732,786.190595"/>
    <poly id="353193521" type="building.yes" color="255,230,230" fill="1" layer="-1.00" shape="10468.776112,821.058722 10474.388936,821.357294 10474.344626,822.055374 10476.977351,822.201192 10477.011007,821.492166 10481.054797,821.709766 10481.667349,810.397688 10469.378134,809.746768 10468.776112,821.058722"/>
    <poly id="353193522" type="building.yes" color="255,230,230" fill="1" layer="-1.00" shape="10080.650236,557.899559 10086.286090,559.238543 10085.824620,561.137407 10092.135901,562.634424 10092.586716,560.724615 10095.995692,561.536538 10097.950726,553.386167 10082.605264,549.749186 10080.650236,557.899559"/>
    <poly id="353193523" type="building.yes" color="255,230,230" fill="1" layer="-1.00" shape="10488.960621,835.168121 10504.177319,836.858219 10505.796427,822.577868 10498.072128,821.717587 10497.557939,826.263337 10493.279494,825.782792 10493.812751,821.070731 10490.598655,820.710385 10488.960621,835.168121"/>
    <poly id="353203904" type="building.yes" color="255,230,230" fill="1" layer="-1.00" shape="10203.655329,587.845414 10215.947832,583.458246 10221.051794,597.569950 10231.279913,593.927089 10225.903791,579.054638 10237.798159,574.816169 10234.794325,566.492386 10220.552514,571.567105 10222.206830,576.153462 10216.537309,578.169742 10214.817877,573.418076 10200.314197,578.595582 10203.655329,587.845414"/>
    <poly id="353203946" type="building.yes" color="255,230,230" fill="1" layer="-1.00" shape="10163.260756,526.665264 10171.081856,544.464864 10179.143653,540.958519 10171.322561,523.158916 10163.260756,526.665264"/>
    <poly id="353203947" type="building.yes" color="255,230,230" fill="1" layer="-1.00" shape="10266.347443,658.514645 10274.928012,660.571514 10279.672541,640.983488 10271.091964,638.926616 10266.347443,658.514645"/>
    <poly id="353203996" type="building.yes" color="255,230,230" fill="1" layer="-1.00" shape="10162.004195,574.877908 10170.183177,571.491955 10162.264709,552.586288 10154.085718,555.972244 10162.004195,574.877908"/>
    <poly id="353204016" type="building.yes" color="255,230,230" fill="1" layer="-1.00" shape="10248.474983,654.763706 10262.800017,658.446186 10265.305917,648.827735 10250.991398,645.145127 10248.474983,654.763706"/>
    <poly id="353204033" type="building.yes" color="255,230,230" fill="1" layer="-1.00" shape="10235.630436,603.984246 10248.815876,606.528781 10250.651630,597.195120 10245.061589,596.165566 10237.455661,594.650709 10235.630436,603.984246"/>
    <poly id="353204036" type="building.yes" color="255,230,230" fill="1" layer="-1.00" shape="10460.493624,593.832556 10469.458783,589.296940 10465.407543,581.384199 10467.960037,580.091580 10463.865518,572.079704 10452.347857,577.907943 10460.493624,593.832556"/>
    <poly id="353204037" type="building.yes" color="255,230,230" fill="1" layer="-1.00" shape="10247.667089,654.086850 10250.203158,646.117807 10236.435087,640.601772 10225.445546,628.918593 10221.166964,633.730659 10232.289930,646.895932 10247.667089,654.086850"/>
    <poly id="353204039" type="building.yes" color="255,230,230" fill="1" layer="-1.00" shape="10444.660743,562.498270 10459.837686,551.987191 10450.973280,539.348523 10446.223963,542.638157 10447.679946,544.713485 10437.262838,551.934810 10444.660743,562.498270"/>
    <poly id="353204050" type="building.yes" color="255,230,230" fill="1" layer="-1.00" shape="10416.054556,641.916968 10423.289341,641.432233 10423.097894,638.611084 10427.451472,638.326736 10427.632396,641.148011 10430.965943,640.931170 10430.275946,630.708606 10415.375205,631.705350 10416.054556,641.916968"/>
    <poly id="353785590" type="building.apartments" color="255,230,230" fill="1" layer="-1.00" shape="10223.244758,979.404825 10232.815881,974.518601 10226.880166,963.018801 10236.252560,958.234599 10231.792716,949.596003 10222.116884,954.527763 10214.931397,940.595884 10205.464823,945.425507 10212.951673,959.918478 10203.317807,964.838676 10207.185208,972.332810 10216.996895,967.321916 10223.244758,979.404825"/>
    <poly id="353785596" type="building.yes" color="255,230,230" fill="1" layer="-1.00" shape="10317.373421,597.994704 10327.867673,599.907012 10326.216937,608.873073 10337.597057,610.940919 10338.437288,606.380206 10365.753963,611.358515 10368.245088,597.842820 10361.020363,596.522675 10361.929777,591.584683 10350.960954,589.589429 10352.938516,578.903277 10342.159487,576.938984 10340.736126,584.673312 10327.657894,582.293518 10326.748489,587.231512 10320.578521,586.109193 10320.094164,588.739091 10319.113319,588.562545 10317.373421,597.994704"/>
    <poly id="354010726" type="building.apartments" color="255,230,230" fill="1" layer="-1.00" shape="9943.857326,922.160134 9957.981428,918.714195 9952.263387,895.486293 9938.128744,898.932361 9943.857326,922.160134"/>
    <poly id="354010733" type="building.apartments" color="255,230,230" fill="1" layer="-1.00" shape="9953.738501,703.353139 9964.313458,701.444330 9959.989611,677.756899 9949.425163,679.665583 9953.738501,703.353139"/>
    <poly id="354010737" type="building.apartments" color="255,230,230" fill="1" layer="-1.00" shape="9954.092482,703.913603 9957.875987,729.943736 9968.665607,728.386680 9964.882117,702.356547 9954.092482,703.913603"/>
    <poly id="354010754" type="building.bungalow" color="255,230,230" fill="1" layer="-1.00" shape="9994.695663,1018.956607 9995.387148,1030.164601 10004.041912,1029.629525 10003.362142,1018.521042 10012.070712,1018.084979 10011.564104,1008.258818 9983.671545,1009.665606 9984.167514,1019.480822 9994.695663,1018.956607"/>
    <poly id="354026114" type="building.yes" color="255,230,230" fill="1" layer="-1.00" shape="10485.084689,895.026656 10501.093136,896.042985 10501.767001,885.460948 10485.769067,884.444492 10485.084689,895.026656"/>
    <poly id="354067597" type="building.yes" color="255,230,230" fill="1" layer="-1.00" shape="10136.032740,577.700890 10154.682531,581.320670 10148.758604,565.524691 10136.032740,577.700890"/>
    <poly id="354067599" type="building.yes" color="255,230,230" fill="1" layer="-1.00" shape="10386.037623,515.330755 10394.983016,518.855954 10399.846941,506.629619 10390.901676,503.115487 10386.037623,515.330755"/>
    <poly id="354067601" type="building.yes" color="255,230,230" fill="1" layer="-1.00" shape="10384.305034,774.619745 10397.193009,775.174903 10398.459951,746.349760 10385.571955,745.794599 10384.305034,774.619745"/>
    <poly id="354067605" type="building.yes" color="255,230,230" fill="1" layer="-1.00" shape="10417.527731,533.169730 10424.857367,537.112779 10430.665748,526.425328 10423.325719,522.493472 10417.527731,533.169730"/>
    <poly id="354067609" type="building.yes" color="255,230,230" fill="1" layer="-1.00" shape="10444.026038,652.401580 10459.045409,651.647035 10458.451805,639.795701 10443.432292,640.539175 10444.026038,652.401580"/>
    <poly id="354067611" type="building.yes" color="255,230,230" fill="1" layer="-1.00" shape="10197.300044,532.316133 10209.714433,529.322620 10205.764318,513.126650 10193.349917,516.120164 10197.300044,532.316133"/>
    <poly id="354067613" type="building.yes" color="255,230,230" fill="1" layer="-1.00" shape="10423.032273,682.601999 10437.210781,683.706513 10438.107958,672.435334 10423.929310,671.319747 10423.032273,682.601999"/>
    <poly id="354067615" type="building.yes" color="255,230,230" fill="1" layer="-1.00" shape="10437.684739,779.210282 10449.027085,779.883528 10449.597311,770.321370 10438.254959,769.648123 10437.684739,779.210282"/>
    <poly id="354067616" type="building.yes" color="255,230,230" fill="1" layer="-1.00" shape="10092.719675,534.802794 10104.642116,538.214858 10107.098418,529.737416 10095.175972,526.325350 10092.719675,534.802794"/>
    <poly id="354067618" type="building.yes" color="255,230,230" fill="1" layer="-1.00" shape="10178.590132,565.158061 10187.566367,562.438025 10183.394565,548.835614 10174.418323,551.555652 10178.590132,565.158061"/>
    <poly id="354067620" type="building.yes" color="255,230,230" fill="1" layer="-1.00" shape="10152.380384,548.873089 10160.961515,546.556352 10157.407393,533.566631 10148.836780,535.883243 10152.380384,548.873089"/>
    <poly id="354067630" type="building.yes" color="255,230,230" fill="1" layer="-1.00" shape="10401.832333,524.000519 10410.284493,528.528102 10416.669353,516.759772 10408.206667,512.232312 10401.832333,524.000519"/>
    <poly id="355017976" type="building.yes" color="255,230,230" fill="1" layer="-1.00" shape="10501.717036,670.814567 10518.026991,670.620467 10517.820417,653.261614 10501.510447,653.455712 10501.717036,670.814567"/>
    <poly id="355057949" type="building.yes" color="255,230,230" fill="1" layer="-1.00" shape="10175.349885,581.151844 10178.555853,587.889874 10195.635488,579.858218 10192.429526,573.120186 10175.349885,581.151844"/>
    <poly id="355057950" type="building.yes" color="255,230,230" fill="1" layer="-1.00" shape="10205.598018,553.044217 10218.710550,549.466630 10215.168577,536.609625 10202.045513,540.187339 10205.598018,553.044217"/>
    <poly id="355057953" type="building.yes" color="255,230,230" fill="1" layer="-1.00" shape="10465.226491,855.281076 10477.830427,855.850738 10478.330126,844.783592 10465.726182,844.213929 10465.226491,855.281076"/>
    <poly id="355057956" type="building.office" color="255,230,230" fill="1" layer="-1.00" shape="10391.828457,975.126579 10403.054771,969.600690 10393.103058,949.600874 10381.876733,955.126768 10391.828457,975.126579"/>
    <poly id="355057959" type="building.yes" color="255,230,230" fill="1" layer="-1.00" shape="10430.795801,832.605290 10447.604018,833.612057 10448.597866,817.202191 10431.789634,816.195422 10430.795801,832.605290"/>
    <poly id="355057960" type="building.yes" color="255,230,230" fill="1" layer="-1.00" shape="10411.342710,814.523367 10427.743974,814.937061 10428.022543,803.861471 10411.621401,803.458847 10411.342710,814.523367"/>
    <poly id="355057961" type="building.yes" color="255,230,230" fill="1" layer="-1.00" shape="10220.742423,532.745416 10235.889698,530.350477 10233.432667,514.922846 10218.274856,517.317910 10220.742423,532.745416"/>
    <poly id="380956879" type="building.school" color="255,230,230" fill="1" layer="-1.00" shape="10374.665951,1007.983123 10373.551417,1023.087913 10411.743977,1025.866176 10410.947865,1036.781848 10395.180089,1035.640949 10395.885735,1025.966447 10385.468710,1025.215796 10384.752415,1034.879354 10372.755328,1034.003590 10371.967125,1044.697727 10383.700884,1045.554481 10383.375083,1050.009417 10371.630937,1049.163859 10369.900184,1072.613417 10384.235577,1073.660628 10386.737469,1039.849310 10391.919737,1040.230483 10391.493483,1045.970999 10424.409023,1048.369238 10427.109666,1011.798572 10374.665951,1007.983123"/>
    <poly id="46459020" type="natural.water" color="181,209,209" fill="0" layer="-4.00" shape="9333.313395,494.102345 9311.873842,574.002224 9302.118104,637.342051 9314.030577,683.005803 9312.079555,724.882618 9289.787625,731.759571 9286.714045,749.301737 9313.975437,784.816690 9354.607168,805.788724 9379.427263,806.156127 9400.594215,790.578800 9409.678153,753.765333 9407.926269,666.248368 9443.185027,636.573574 9459.372677,638.461601 9460.435358,614.676589 9483.249436,590.720085 9527.303216,594.212688 9547.959126,609.810290 9610.529955,623.423319 9636.354072,615.319842 9658.700637,643.829828 9743.523188,645.440807 9777.048795,659.190887 9785.970924,703.949373 9799.187719,709.117349 9818.849145,695.219378 9856.531934,708.997463 9872.656907,726.808569 9878.984507,830.192703 9881.986393,843.631874 9885.153942,872.714241 9888.992387,896.285663 9880.148692,906.566675 9871.029558,914.049686 9861.803303,913.440120 9855.807527,918.970345 9858.188707,959.754463 9867.392311,1011.363365 9867.936794,1024.355760 9852.578177,1026.642853 9853.355687,1031.826486 9867.978921,1029.647823 9863.248989,1080.382267 9855.584398,1085.400950 9874.512475,1132.641989 9859.909547,1152.381105 9846.290208,1196.323648 9846.185747,1206.965391 9850.865075,1243.669610 9851.593010,1253.515281 9850.516804,1259.451820 9845.126344,1261.022018 9839.257544,1258.667258 9826.250052,1254.249713 9807.162040,1252.661800 9794.531815,1253.399473 9765.487489,1257.909568 9741.678900,1254.063993 9735.145459,1251.573263 9732.917945,1248.344611 9731.988240,1245.399407 9732.412956,1239.548146 9730.247944,1232.742386 9726.401467,1227.894370 9719.430943,1229.339542 9711.374879,1234.174745 9700.912848,1240.223438 9692.457969,1240.745208 9669.460209,1236.945396 9665.827856,1234.165358 9657.125915,1224.581060 9655.733163,1218.995106 9657.227161,1212.798892 9659.300018,1206.606834 9659.536909,1199.130181 9658.137930,1194.784401 9656.931994,1189.860554 9652.669298,1184.530342 9648.824307,1180.689904 9644.889431,1179.895432 9641.316461,1183.846664 9639.878197,1187.661662 9637.331387,1191.179884 9635.541453,1195.508412 9631.785305,1199.982236 9626.318007,1201.287681 9621.736654,1196.592407 9611.980633,1194.793502 9602.624449,1196.510824 9593.330403,1200.785117 9585.361184,1200.559283 9576.176015,1193.693515 9526.066680,1159.791217 9516.528746,1156.871445 9514.128945,1164.761502 9513.442940,1191.000074 9524.257008,1213.513694 9549.381025,1233.187784 9548.981394,1251.694437 9578.997720,1273.912064 9614.483646,1284.460548 9626.289006,1310.682665 9635.008096,1312.017854 9649.019193,1300.025148 9687.547085,1329.127847 9686.815250,1336.577196 9594.372251,1346.041686 9582.364216,1392.655834 9548.282981,1458.201893 9537.098486,1467.182437 9506.521807,1431.529782 9498.338663,1431.007602 9464.536009,1450.312415 9430.301124,1413.253150 9398.404866,1420.377841 9370.582609,1431.129856 9354.491185,1475.036079 9361.417605,1520.914517 9388.802599,1559.816126 9339.230398,1576.021444 9330.709937,1557.865121 9248.709117,1575.377902 9233.205268,1597.132524 9221.332946,1630.381073 9219.684648,1668.489745 9190.225941,1671.732479 9172.474848,1617.446930 9174.342091,1575.659597 9137.084182,1574.422939 9098.893937,1586.716893 9089.552389,1559.779031 9148.023567,1527.433622 9112.278049,1408.258157 9124.044577,1381.111682 9146.984800,1374.835643 9160.925953,1336.823306 9157.566367,1292.684815 9172.493756,1242.990417 9162.474659,1206.051220 9167.531518,1171.356306 9141.523378,1123.602688 9130.548632,1124.619933 9108.191713,1147.109984 9085.136299,1157.849584 9067.596148,1153.719374 9056.458549,1134.996584 9037.909178,1141.496895 9035.165427,1202.339234 9015.004367,1220.119494 9015.080883,1244.942836 9034.646435,1263.531377 9026.783329,1295.868362 9031.604968,1326.746783 9007.271677,1329.186474 8989.972292,1381.123978 9034.466043,1374.046886 9029.624900,1403.003803 9017.801072,1419.211537 8990.279258,1412.875873 8973.120598,1394.026014 8932.821976,1390.246316 8928.580122,1375.260888 8913.001269,1374.074724 8917.865729,1354.097178 8916.372624,1320.853652 8930.573362,1312.423378 8922.391179,1298.824954 8903.557886,1299.183658 8893.809590,1319.972697 8868.625139,1312.867314 8867.067068,1297.905066 8850.820811,1290.216390 8832.167718,1294.193675 8826.544800,1317.612789 8835.395795,1343.094897 8827.823242,1381.197240 8863.566647,1394.752904 8867.231961,1435.366737 8889.322728,1453.039041 8935.191036,1450.905625 8944.898244,1506.560807 8923.109079,1497.355204 8913.828934,1479.949984 8894.300042,1497.756065 8882.121770,1519.493280 8882.325003,1538.192100 8899.742784,1554.957157 8912.174175,1580.651007 8891.512294,1592.602329 8880.454935,1650.754260 8899.535298,1702.609899 8897.167090,1712.226990 8891.288195,1716.051046 8878.640135,1705.628634 8847.118051,1643.015968 8822.853533,1628.348286 8805.987449,1656.685603 8821.452225,1686.096543 8830.792812,1725.202878 8822.828336,1765.701597 8833.661782,1785.391189 8864.290050,1823.511345"/>
    <poly id="52511370" type="building.apartments" color="255,230,230" fill="1" layer="-1.00" shape="9857.832906,571.995327 9858.613395,554.502837 9848.978691,554.075291 9848.229466,570.659479 9830.719732,569.982700 9830.156365,579.212659 9847.813407,579.887679 9846.980103,598.244441 9855.730355,598.638252 9856.563007,580.226137 9874.399061,580.910118 9874.900287,572.644195 9857.832906,571.995327"/>
    <poly id="52511372" type="building.apartments" color="255,230,230" fill="1" layer="-1.00" shape="9982.228479,602.011716 9973.719865,598.935467 9970.132519,608.755104 9960.017468,605.111193 9956.450648,614.886299 9966.798249,618.616012 9963.312836,628.157628 9971.831961,631.233746 9975.245832,621.870142 9985.086094,625.417688 9988.653059,615.653658 9978.569716,612.020432 9982.228479,602.011716"/>
    <poly id="52511373" type="building.apartments" color="255,230,230" fill="1" layer="-1.00" shape="10035.298527,613.226081 10026.789931,610.149808 10023.202560,619.969432 10013.087529,616.325494 10009.520552,626.089517 10019.878656,629.819132 10016.393351,639.371806 10024.912460,642.447948 10028.326354,633.084356 10038.155942,636.620983 10041.722931,626.856967 10031.650262,623.234658 10035.298527,613.226081"/>
    <poly id="52511384" type="building.dormitory" color="255,230,230" fill="1" layer="-1.00" shape="10119.565622,1098.737888 10070.426028,1101.062270 10066.089417,988.054742 10112.626626,986.337173 10119.565622,1098.737888"/>
    <poly id="52511399" type="building.school" color="255,230,230" fill="1" layer="-1.00" shape="10323.397095,889.887882 10330.844544,904.613880 10355.282923,892.397946 10364.950440,911.504279 10351.936103,918.003700 10348.487306,911.191038 10339.668068,915.592130 10344.916836,925.970770 10335.783911,930.541685 10333.606690,926.227286 10327.319248,929.369203 10329.442540,933.573522 10322.056710,937.271067 10318.672490,930.579435 10321.591231,929.116341 10320.006850,925.979615 10314.273932,928.849197 10315.211671,930.709241 10294.738277,940.940348 10290.136127,931.838400 10313.643491,920.098532 10303.415302,899.869527 10323.397095,889.887882"/>
    <poly id="52511400" type="building.apartments" color="255,230,230" fill="1" layer="-1.00" shape="10240.424654,1022.204845 10255.453362,1022.258265 10255.363173,1027.053640 10264.551042,1027.099166 10264.704660,1008.196943 10270.231016,1008.308248 10270.257059,1000.778783 10247.818075,1000.603282 10247.799741,995.532393 10240.485235,995.497766 10240.445572,1015.129404 10235.089158,1015.148950 10235.068243,1022.224392 10240.424654,1022.204845"/>
    <poly id="556314751" type="leisure.playground" color="207,245,201" fill="1" layer="-2.00" shape="10250.389193,1105.083963 10292.857434,1020.683200 10362.317469,1022.668102 10355.931072,1104.966925 10250.389193,1105.083963"/>
    <poly id="617989951" type="amenity.university" color="237,199,199" fill="0" layer="-1.00" shape="10456.502056,2176.385329 10458.520133,2144.384525 10465.136021,2118.496218 10461.784381,2074.767398 10430.277279,2083.557670 10423.374229,1977.578472 10459.415221,1733.614280 10486.143069,1370.235996 10500.136686,1265.691066 10507.977148,1046.466405 10495.183122,1038.757385 10465.233128,996.397098 10414.202396,922.997605 10170.565220,646.812175 10157.119947,635.711916 10147.011281,625.535181 9861.542275,547.713773 9673.784309,496.919242 9645.241416,494.171033 9429.380788,525.096282 9403.427915,525.960275 9372.552150,517.349905 9333.313395,494.102345"/>
    <poly id="622286331" type="building.apartments" color="255,230,230" fill="1" layer="-1.00" shape="9925.043664,873.921157 9935.203745,873.412382 9933.768304,844.840816 9923.597685,845.349716 9925.043664,873.921157"/>
    <poly id="622286334" type="building.apartments" color="255,230,230" fill="1" layer="-1.00" shape="9918.691514,814.317227 9928.713910,813.732589 9928.396241,808.277732 9934.306586,807.930397 9933.593716,795.814729 9928.303799,796.121443 9927.960593,790.290434 9917.317619,790.904621 9918.691514,814.317227"/>
    <poly id="622286336" type="building.apartments" color="255,230,230" fill="1" layer="-1.00" shape="9975.203202,833.539850 9983.328016,833.564712 9983.396755,808.451910 9975.282584,808.437992 9975.203202,833.539850"/>
    <poly id="622286339" type="building.apartments" color="255,230,230" fill="1" layer="-1.00" shape="9956.323873,781.559189 9953.346026,758.663978 9969.433701,756.600816 9972.400874,779.485083 9956.323873,781.559189"/>
    <poly id="622286712" type="building.bungalow" color="255,230,230" fill="1" layer="-1.00" shape="9995.455326,675.075057 9991.250721,663.144984 10005.525171,658.169334 10009.729768,670.099409 9995.455326,675.075057"/>
    <poly id="622286713" type="building.bungalow" color="255,230,230" fill="1" layer="-1.00" shape="10005.083681,701.445147 9999.779331,686.427947 10013.990761,681.464126 10019.295100,696.481329 10005.083681,701.445147"/>
    <poly id="622286714" type="building.bungalow" color="255,230,230" fill="1" layer="-1.00" shape="10011.207949,732.263811 10006.489175,716.929601 10022.710918,711.986094 10027.429679,727.320307 10011.207949,732.263811"/>
    <poly id="622286715" type="building.bungalow" color="255,230,230" fill="1" layer="-1.00" shape="10015.400867,759.097341 10010.873794,744.834857 10024.021783,740.714147 10028.538324,754.976758 10015.400867,759.097341"/>
    <poly id="622291394" type="building.bungalow" color="255,230,230" fill="1" layer="-1.00" shape="9892.508681,986.328009 9904.295709,985.467621 9906.217475,1011.575335 9894.430332,1012.424653 9892.508681,986.328009"/>
    <poly id="622291395" type="building.bungalow" color="255,230,230" fill="1" layer="-1.00" shape="9945.562745,990.112675 9960.051060,980.151869 9955.114892,973.058060 9940.626574,983.018870 9945.562745,990.112675"/>