<?xml version="1.0" encoding="UTF-8"?>

<!-- generated on 2021-12-17 02:47:26 by Eclipse SUMO duarouter Version 1.9.2
<configuration xmlns:xsi="http://www.w3.org/2001/XMLSchema-instance" xsi:noNamespaceSchemaLocation="http://sumo.dlr.de/xsd/duarouterConfiguration.xsd">

    <input>
        <net-file value="C:\Users\saurabh\Sumo\2021-12-17-02-47-15\osm.net.xml"/>
        <route-files value="C:\Users\saurabh\Sumo\2021-12-17-02-47-15\osm.passenger.trips.xml"/>
    </input>

    <output>
        <output-file value="C:\Users\saurabh\Sumo\2021-12-17-02-47-15\osm.passenger.trips.xml.tmp"/>
        <write-trips value="true"/>
    </output>

    <time>
        <begin value="0"/>
        <end value="3600"/>
    </time>

    <report>
        <no-warnings value="true"/>
        <ignore-errors value="true"/>
        <no-step-log value="true"/>
    </report>

</configuration>
-->

<routes xmlns:xsi="http://www.w3.org/2001/XMLSchema-instance" xsi:noNamespaceSchemaLocation="http://sumo.dlr.de/xsd/routes_file.xsd">
    <vType id="veh_passenger" vClass="passenger"/>
    <trip id="veh0" type="veh_passenger" depart="0.00" departLane="best" from="-672840525" to="-52664437#2"/>
    <trip id="veh1" type="veh_passenger" depart="8.54" departLane="best" from="273833832#4" to="273833832#4"/>
    <trip id="veh2" type="veh_passenger" depart="17.08" departLane="best" from="52663744#1" to="-366913700#3"/>
    <trip id="veh3" type="veh_passenger" depart="25.61" departLane="best" from="177566523#3" to="-185467797#2"/>
    <trip id="veh5" type="veh_passenger" depart="42.69" departLane="best" from="-185467797#1" to="-52663744#1"/>
    <trip id="veh6" type="veh_passenger" depart="51.23" departLane="best" departSpeed="max" from="273833832#0" to="177566559#2"/>
    <trip id="veh7" type="veh_passenger" depart="59.76" departLane="best" from="-52664437#0" to="185467797#1"/>
    <trip id="veh8" type="veh_passenger" depart="68.30" departLane="best" from="366913701#6" to="-104902792#1"/>
    <trip id="veh9" type="veh_passenger" depart="76.84" departLane="best" from="366913701#5" to="273833832#5"/>
    <trip id="veh10" type="veh_passenger" depart="85.38" departLane="best" departSpeed="max" from="177566523#0" to="-52514845#1"/>
    <trip id="veh11" type="veh_passenger" depart="93.91" departLane="best" from="622415793#2" to="177566523#3"/>
    <trip id="veh12" type="veh_passenger" depart="102.45" departLane="best" from="-366913700#4" to="-366913701#1"/>
    <trip id="veh13" type="veh_passenger" depart="110.99" departLane="best" from="366913701#5" to="273833832#6"/>
    <trip id="veh14" type="veh_passenger" depart="119.53" departLane="best" from="177566558#2" to="699397460"/>
    <trip id="veh15" type="veh_passenger" depart="128.07" departLane="best" departSpeed="max" from="177566523#0" to="177566559#3"/>
    <trip id="veh17" type="veh_passenger" depart="145.14" departLane="best" from="52514846#0" to="177566559#5"/>
    <trip id="veh18" type="veh_passenger" depart="153.68" departLane="best" departSpeed="max" from="273833832#0" to="-215261251#1"/>
    <trip id="veh19" type="veh_passenger" depart="162.22" departLane="best" from="-52664437#2" to="-723323006#2"/>
    <trip id="veh20" type="veh_passenger" depart="170.75" departLane="best" from="-366913700#1" to="-547023629#1"/>
    <trip id="veh21" type="veh_passenger" depart="179.29" departLane="best" departSpeed="max" from="177566523#0" to="-52663746"/>
    <trip id="veh22" type="veh_passenger" depart="187.83" departLane="best" from="-622415793#2" to="568771388"/>
    <trip id="veh23" type="veh_passenger" depart="196.37" departLane="best" departSpeed="max" from="273833832#0" to="215261251#1"/>
    <trip id="veh24" type="veh_passenger" depart="204.90" departLane="best" from="-52514846#0" to="273833832#6"/>
    <trip id="veh26" type="veh_passenger" depart="221.98" departLane="best" from="-52664437#2" to="-185467797#3"/>
    <trip id="veh27" type="veh_passenger" depart="230.52" departLane="best" from="104902792#0" to="-672840525"/>
    <trip id="veh28" type="veh_passenger" depart="239.06" departLane="best" from="-52663744#3" to="622415769#0"/>
    <trip id="veh29" type="veh_passenger" depart="247.59" departLane="best" from="52514847#0" to="104902792#2"/>
    <trip id="veh30" type="veh_passenger" depart="256.13" departLane="best" departSpeed="max" from="273833832#0" to="177566523#7"/>
    <trip id="veh31" type="veh_passenger" depart="264.67" departLane="best" from="52664437#1" to="177566523#8"/>
    <trip id="veh32" type="veh_passenger" depart="273.21" departLane="best" from="-622415793#1" to="-622415769#0"/>
    <trip id="veh33" type="veh_passenger" depart="281.74" departLane="best" from="177566566" to="52663744#2"/>
    <trip id="veh34" type="veh_passenger" depart="290.28" departLane="best" from="177566523#2" to="-52664437#1"/>
    <trip id="veh35" type="veh_passenger" depart="298.82" departLane="best" from="-366913700#4" to="-215261251#1"/>
    <trip id="veh36" type="veh_passenger" depart="307.36" departLane="best" from="366913701#2" to="177566523#8"/>
    <trip id="veh37" type="veh_passenger" depart="315.89" departLane="best" from="-104902792#2" to="273833832#6"/>
    <trip id="veh38" type="veh_passenger" depart="324.43" departLane="best" departSpeed="max" from="273833832#0" to="177566559#0"/>
    <trip id="veh40" type="veh_passenger" depart="341.51" departLane="best" from="-366913701#4" to="177566523#8"/>
    <trip id="veh42" type="veh_passenger" depart="358.58" departLane="best" from="52664437#1" to="52514846#2"/>
    <trip id="veh44" type="veh_passenger" depart="375.66" departLane="best" from="215261251#0" to="-52514845#1"/>
    <trip id="veh45" type="veh_passenger" depart="384.20" departLane="best" from="-104902792#0" to="177566523#2"/>
    <trip id="veh46" type="veh_passenger" depart="392.73" departLane="best" from="-185467797#0" to="547023629#1"/>
    <trip id="veh47" type="veh_passenger" depart="401.27" departLane="best" from="52514847#0" to="439108069#1"/>
    <trip id="veh48" type="veh_passenger" depart="409.81" departLane="best" from="52514847#0" to="622415769#1"/>
    <trip id="veh49" type="veh_passenger" depart="418.35" departLane="best" from="-366913700#3" to="177566556#2"/>
    <trip id="veh50" type="veh_passenger" depart="426.88" departLane="best" from="-22843276#1" to="273833832#6"/>
    <trip id="veh51" type="veh_passenger" depart="435.42" departLane="best" from="366913700#1" to="-366913701#8"/>
    <trip id="veh52" type="veh_passenger" depart="443.96" departLane="best" from="177566523#4" to="-52663746"/>
    <trip id="veh53" type="veh_passenger" depart="452.50" departLane="best" from="177566558#3" to="273833832#6"/>
    <trip id="veh54" type="veh_passenger" depart="461.04" departLane="best" from="-52663744#1" to="104902792#1"/>
    <trip id="veh55" type="veh_passenger" depart="469.57" departLane="best" from="723552318#2" to="273833832#1"/>
    <trip id="veh56" type="veh_passenger" depart="478.11" departLane="best" from="-366913701#6" to="-52664437#2"/>
    <trip id="veh57" type="veh_passenger" depart="486.65" departLane="best" departSpeed="max" from="177566523#0" to="185467797#1"/>
    <trip id="veh58" type="veh_passenger" depart="495.19" departLane="best" from="-52664437#2" to="52663746"/>
    <trip id="veh59" type="veh_passenger" depart="503.72" departLane="best" from="-547023629#1" to="273833832#3"/>
    <trip id="veh60" type="veh_passenger" depart="512.26" departLane="best" from="-52663746" to="-439108069#0"/>
    <trip id="veh61" type="veh_passenger" depart="520.80" departLane="best" from="568771388" to="177566559#5"/>
    <trip id="veh63" type="veh_passenger" depart="537.87" departLane="best" from="366913701#5" to="-52514847#1"/>
    <trip id="veh64" type="veh_passenger" depart="546.41" departLane="best" from="-366913701#0" to="177566523#8"/>
    <trip id="veh65" type="veh_passenger" depart="554.95" departLane="best" from="177566523#4" to="177566523#8"/>
    <trip id="veh66" type="veh_passenger" depart="563.49" departLane="best" from="723323006#2" to="-366913701#1"/>
    <trip id="veh67" type="veh_passenger" depart="572.03" departLane="best" from="52514846#0" to="-622415769#1"/>
    <trip id="veh68" type="veh_passenger" depart="580.56" departLane="best" from="-52514847#0" to="177566523#8"/>
    <trip id="veh69" type="veh_passenger" depart="589.10" departLane="best" from="177566523#3" to="-723323006#0"/>
    <trip id="veh70" type="veh_passenger" depart="597.64" departLane="best" from="992408934" to="52511312"/>
    <trip id="veh72" type="veh_passenger" depart="614.71" departLane="best" from="177566523#2" to="-22843134"/>
    <trip id="veh73" type="veh_passenger" depart="623.25" departLane="best" departSpeed="max" from="177566523#0" to="723323006#2"/>
    <trip id="veh74" type="veh_passenger" depart="631.79" departLane="best" from="177566523#6" to="177566523#8"/>
    <trip id="veh75" type="veh_passenger" depart="640.33" departLane="best" from="622415793#2" to="723552318#2"/>
    <trip id="veh76" type="veh_passenger" depart="648.86" departLane="best" from="177566558#7" to="273833832#6"/>
    <trip id="veh77" type="veh_passenger" depart="657.40" departLane="best" from="-52514845#0" to="-723552318#2"/>
    <trip id="veh79" type="veh_passenger" depart="674.48" departLane="best" from="177566558#3" to="273833832#6"/>
    <trip id="veh80" type="veh_passenger" depart="683.02" departLane="best" from="-22843127#1" to="185467797#0"/>
    <trip id="veh81" type="veh_passenger" depart="691.55" departLane="best" departSpeed="max" from="177566558#0" to="52514845#2"/>
    <trip id="veh82" type="veh_passenger" depart="700.09" departLane="best" from="185467797#1" to="273833832#4"/>
    <trip id="veh83" type="veh_passenger" depart="708.63" departLane="best" from="-547023629#0" to="-366913701#6"/>
    <trip id="veh84" type="veh_passenger" depart="717.17" departLane="best" from="52663744#1" to="-622415769#0"/>
    <trip id="veh85" type="veh_passenger" depart="725.70" departLane="best" from="185467797#1" to="22843127#1"/>
    <trip id="veh86" type="veh_passenger" depart="734.24" departLane="best" from="177566523#3" to="185467797#0"/>
    <trip id="veh87" type="veh_passenger" depart="742.78" departLane="best" departSpeed="max" from="177566558#0" to="547023629#2"/>
    <trip id="veh88" type="veh_passenger" depart="751.32" departLane="best" from="-52663744#1" to="273833832#6"/>
    <trip id="veh89" type="veh_passenger" depart="759.85" departLane="best" from="-547023629#1" to="177566523#7"/>
    <trip id="veh90" type="veh_passenger" depart="768.39" departLane="best" departSpeed="max" from="273833832#0" to="-723552318#2"/>
    <trip id="veh91" type="veh_passenger" depart="776.93" departLane="best" from="104902792#1" to="273833832#6"/>
    <trip id="veh92" type="veh_passenger" depart="785.47" departLane="best" from="-366913700#0" to="177566523#8"/>
    <trip id="veh93" type="veh_passenger" depart="794.01" departLane="best" from="-366913700#0" to="-52664437#0"/>
    <trip id="veh94" type="veh_passenger" depart="802.54" departLane="best" from="-622415793#1" to="547023629#2"/>
    <trip id="veh95" type="veh_passenger" depart="811.08" departLane="best" departSpeed="max" from="177566523#0" to="-52514845#2"/>
    <trip id="veh96" type="veh_passenger" depart="819.62" departLane="best" from="52511312" to="273833832#6"/>
    <trip id="veh97" type="veh_passenger" depart="828.16" departLane="best" from="215261251#0" to="723552318#1"/>
    <trip id="veh98" type="veh_passenger" depart="836.69" departLane="best" departSpeed="max" from="273833832#0" to="-104902792#1"/>
    <trip id="veh99" type="veh_passenger" depart="845.23" departLane="best" from="366913701#7" to="-723552318#2"/>
    <trip id="veh100" type="veh_passenger" depart="853.77" departLane="best" departSpeed="max" from="273833832#0" to="568771388"/>
    <trip id="veh102" type="veh_passenger" depart="870.84" departLane="best" from="-672840525" to="215261251#0"/>
    <trip id="veh103" type="veh_passenger" depart="879.38" departLane="best" from="273833832#1" to="-52663744#2"/>
    <trip id="veh105" type="veh_passenger" depart="896.46" departLane="best" from="177566523#4" to="-104902792#2"/>
    <trip id="veh107" type="veh_passenger" depart="913.53" departLane="best" from="-52511313#1" to="-366913701#8"/>
    <trip id="veh108" type="veh_passenger" depart="922.07" departLane="best" from="-992408934" to="52663744#2"/>
    <trip id="veh109" type="veh_passenger" depart="930.61" departLane="best" from="-622415769#0" to="-366913701#2"/>
    <trip id="veh110" type="veh_passenger" depart="939.15" departLane="best" from="366913700#4" to="52514847#1"/>
    <trip id="veh111" type="veh_passenger" depart="947.68" departLane="best" from="-52514845#0" to="547023629#1"/>
    <trip id="veh112" type="veh_passenger" depart="956.22" departLane="best" from="52514846#1" to="723323006#0"/>
    <trip id="veh113" type="veh_passenger" depart="964.76" departLane="best" from="366913701#6" to="52514847#0"/>
    <trip id="veh114" type="veh_passenger" depart="973.30" departLane="best" from="-185467797#1" to="273833832#6"/>
    <trip id="veh115" type="veh_passenger" depart="981.83" departLane="best" departSpeed="max" from="177566523#0" to="547023629#2"/>
    <trip id="veh116" type="veh_passenger" depart="990.37" departLane="best" from="366913701#4" to="52514846#0"/>
    <trip id="veh117" type="veh_passenger" depart="998.91" departLane="best" from="366913701#6" to="-672840525"/>
    <trip id="veh118" type="veh_passenger" depart="1007.45" departLane="best" from="52514846#3" to="52514845#3"/>
    <trip id="veh119" type="veh_passenger" depart="1015.99" departLane="best" from="-52664437#1" to="366913701#6"/>
    <trip id="veh120" type="veh_passenger" depart="1024.52" departLane="best" from="366913701#2" to="-547023629#0"/>
    <trip id="veh121" type="veh_passenger" depart="1033.06" departLane="best" departSpeed="max" from="273833832#0" to="177566523#7"/>
    <trip id="veh122" type="veh_passenger" depart="1041.60" departLane="best" from="723323006#1" to="177566559#0"/>
    <trip id="veh123" type="veh_passenger" depart="1050.14" departLane="best" from="622415769#0" to="-366913701#5"/>
    <trip id="veh124" type="veh_passenger" depart="1058.67" departLane="best" from="699397460" to="-52514846#3"/>
    <trip id="veh125" type="veh_passenger" depart="1067.21" departLane="best" from="-366913701#3" to="177566523#8"/>
    <trip id="veh126" type="veh_passenger" depart="1075.75" departLane="best" from="273833832#3" to="104902792#2"/>
    <trip id="veh128" type="veh_passenger" depart="1092.82" departLane="best" departSpeed="max" from="177566523#0" to="177566559#5"/>
    <trip id="veh129" type="veh_passenger" depart="1101.36" departLane="best" from="-622415769#1" to="273833832#6"/>
    <trip id="veh130" type="veh_passenger" depart="1109.90" departLane="best" from="-104902792#0" to="547023629#0"/>
    <trip id="veh131" type="veh_passenger" depart="1118.44" departLane="best" from="177566558#3" to="273833832#6"/>
    <trip id="veh132" type="veh_passenger" depart="1126.98" departLane="best" departSpeed="max" from="177566523#0" to="-366913700#0"/>
    <trip id="veh133" type="veh_passenger" depart="1135.51" departLane="best" departSpeed="max" from="273833832#0" to="177566523#2"/>
    <trip id="veh134" type="veh_passenger" depart="1144.05" departLane="best" from="273833832#1" to="-992408934"/>
    <trip id="veh135" type="veh_passenger" depart="1152.59" departLane="best" from="-992408934" to="177566523#8"/>
    <trip id="veh136" type="veh_passenger" depart="1161.13" departLane="best" from="-366913701#7" to="177566523#8"/>
    <trip id="veh137" type="veh_passenger" depart="1169.66" departLane="best" from="52663746" to="22843127#0"/>
    <trip id="veh138" type="veh_passenger" depart="1178.20" departLane="best" from="-723552318#1" to="177566559#3"/>
    <trip id="veh139" type="veh_passenger" depart="1186.74" departLane="best" from="-104902792#0" to="-723323006#1"/>
    <trip id="veh140" type="veh_passenger" depart="1195.28" departLane="best" from="177566523#5" to="-52664437#0"/>
    <trip id="veh142" type="veh_passenger" depart="1212.35" departLane="best" from="366913701#3" to="-52514846#1"/>
    <trip id="veh143" type="veh_passenger" depart="1220.89" departLane="best" from="22843276#0" to="177566523#3"/>
    <trip id="veh144" type="veh_passenger" depart="1229.43" departLane="best" from="366913701#8" to="273833832#6"/>
    <trip id="veh145" type="veh_passenger" depart="1237.97" departLane="best" departSpeed="max" from="273833832#0" to="-52664437#2"/>
    <trip id="veh146" type="veh_passenger" depart="1246.50" departLane="best" from="-52663744#0" to="-185467797#1"/>
    <trip id="veh147" type="veh_passenger" depart="1255.04" departLane="best" from="-568771388" to="177566556#1"/>
    <trip id="veh148" type="veh_passenger" depart="1263.58" departLane="best" from="177566523#3" to="22843276#0"/>
    <trip id="veh149" type="veh_passenger" depart="1272.12" departLane="best" from="-52514847#1" to="273833832#5"/>
    <trip id="veh150" type="veh_passenger" depart="1280.65" departLane="best" departSpeed="max" from="273833832#0" to="-104902792#1"/>
    <trip id="veh151" type="veh_passenger" depart="1289.19" departLane="best" from="273833832#5" to="366913700#1"/>
    <trip id="veh152" type="veh_passenger" depart="1297.73" departLane="best" from="-366913701#2" to="177566523#8"/>
    <trip id="veh153" type="veh_passenger" depart="1306.27" departLane="best" from="-622415769#0" to="52514845#1"/>
    <trip id="veh154" type="veh_passenger" depart="1314.80" departLane="best" departSpeed="max" from="273833832#0" to="723552318#1"/>
    <trip id="veh155" type="veh_passenger" depart="1323.34" departLane="best" from="185467797#1" to="622415793#0"/>
    <trip id="veh157" type="veh_passenger" depart="1340.42" departLane="best" from="52663744#2" to="273833832#6"/>
    <trip id="veh159" type="veh_passenger" depart="1357.49" departLane="best" from="366913700#1" to="177566558#4"/>
    <trip id="veh160" type="veh_passenger" depart="1366.03" departLane="best" from="-366913700#1" to="-723323006#1"/>
    <trip id="veh161" type="veh_passenger" depart="1374.57" departLane="best" from="177566558#3" to="-439108069#1"/>
    <trip id="veh162" type="veh_passenger" depart="1383.11" departLane="best" departSpeed="max" from="273833832#0" to="-22843276#0"/>
    <trip id="veh163" type="veh_passenger" depart="1391.64" departLane="best" from="177566523#2" to="177566559#1"/>
    <trip id="veh164" type="veh_passenger" depart="1400.18" departLane="best" from="177566523#3" to="-52663744#3"/>
    <trip id="veh165" type="veh_passenger" depart="1408.72" departLane="best" departSpeed="max" from="177566523#0" to="-104902792#1"/>
    <trip id="veh166" type="veh_passenger" depart="1417.26" departLane="best" from="177566523#3" to="273833832#6"/>
    <trip id="veh167" type="veh_passenger" depart="1425.79" departLane="best" from="177566558#4" to="185467797#4"/>
    <trip id="veh168" type="veh_passenger" depart="1434.33" departLane="best" departSpeed="max" from="177566523#0" to="273833832#4"/>
    <trip id="veh169" type="veh_passenger" depart="1442.87" departLane="best" from="177566523#2" to="-52514845#3"/>
    <trip id="veh171" type="veh_passenger" depart="1459.95" departLane="best" from="22843127#1" to="-185467797#2"/>
    <trip id="veh172" type="veh_passenger" depart="1468.48" departLane="best" departSpeed="max" from="177566523#0" to="177566559#5"/>
    <trip id="veh174" type="veh_passenger" depart="1485.56" departLane="best" from="-439108069#0" to="177566523#8"/>
    <trip id="veh175" type="veh_passenger" depart="1494.10" departLane="best" from="-22843127#0" to="177566523#6"/>
    <trip id="veh176" type="veh_passenger" depart="1502.63" departLane="best" from="-52663744#3" to="177566523#2"/>
    <trip id="veh177" type="veh_passenger" depart="1511.17" departLane="best" from="273833832#5" to="439108069#1"/>
    <trip id="veh178" type="veh_passenger" depart="1519.71" departLane="best" from="-622415769#0" to="-366913700#2"/>
    <trip id="veh179" type="veh_passenger" depart="1528.25" departLane="best" departSpeed="max" from="273833832#0" to="366913700#3"/>
    <trip id="veh180" type="veh_passenger" depart="1536.78" departLane="best" departSpeed="max" from="273833832#0" to="273833832#6"/>
    <trip id="veh181" type="veh_passenger" depart="1545.32" departLane="best" from="-366913701#7" to="273833832#3"/>
    <trip id="veh182" type="veh_passenger" depart="1553.86" departLane="best" from="177566559#0" to="-52664437#1"/>
    <trip id="veh183" type="veh_passenger" depart="1562.40" departLane="best" departSpeed="max" from="273833832#0" to="366913700#0"/>
    <trip id="veh184" type="veh_passenger" depart="1570.93" departLane="best" from="-52514845#3" to="215261251#0"/>
    <trip id="veh185" type="veh_passenger" depart="1579.47" departLane="best" from="273833832#5" to="-366913701#5"/>
    <trip id="veh186" type="veh_passenger" depart="1588.01" departLane="best" from="366913701#8" to="672840525"/>
    <trip id="veh187" type="veh_passenger" depart="1596.55" departLane="best" from="-366913701#3" to="-185467797#1"/>
    <trip id="veh188" type="veh_passenger" depart="1605.09" departLane="best" from="104902792#0" to="273833832#4"/>
    <trip id="veh189" type="veh_passenger" depart="1613.62" departLane="best" from="273833832#1" to="-366913700#1"/>
    <trip id="veh190" type="veh_passenger" depart="1622.16" departLane="best" departSpeed="max" from="273833832#0" to="22843276#0"/>
    <trip id="veh191" type="veh_passenger" depart="1630.70" departLane="best" from="-366913701#6" to="723323006#2"/>
    <trip id="veh192" type="veh_passenger" depart="1639.24" departLane="best" from="366913701#0" to="177566523#3"/>
    <trip id="veh193" type="veh_passenger" depart="1647.77" departLane="best" from="177566523#4" to="177566523#5"/>
    <trip id="veh194" type="veh_passenger" depart="1656.31" departLane="best" departSpeed="max" from="177566558#0" to="177566523#3"/>
    <trip id="veh195" type="veh_passenger" depart="1664.85" departLane="best" from="52514845#2" to="366913701#8"/>
    <trip id="veh196" type="veh_passenger" depart="1673.39" departLane="best" from="273833832#1" to="177566523#8"/>
    <trip id="veh197" type="veh_passenger" depart="1681.92" departLane="best" from="273833832#4" to="692042225"/>
    <trip id="veh198" type="veh_passenger" depart="1690.46" departLane="best" from="-622415793#2" to="366913701#4"/>
    <trip id="veh199" type="veh_passenger" depart="1699.00" departLane="best" from="177566558#3" to="177566556#2"/>
    <trip id="veh200" type="veh_passenger" depart="1707.54" departLane="best" from="177566523#5" to="273833832#6"/>
    <trip id="veh202" type="veh_passenger" depart="1724.61" departLane="best" from="52514847#1" to="-622415769#0"/>
    <trip id="veh203" type="veh_passenger" depart="1733.15" departLane="best" departSpeed="max" from="177566523#0" to="-185467797#2"/>
    <trip id="veh204" type="veh_passenger" depart="1741.69" departLane="best" from="-52663744#3" to="366913701#2"/>
    <trip id="veh205" type="veh_passenger" depart="1750.23" departLane="best" departSpeed="max" from="177566523#0" to="52514847#0"/>
    <trip id="veh206" type="veh_passenger" depart="1758.76" departLane="best" departSpeed="max" from="273833832#0" to="-699397460"/>
    <trip id="veh207" type="veh_passenger" depart="1767.30" departLane="best" from="-104902792#2" to="622415793#0"/>
    <trip id="veh208" type="veh_passenger" depart="1775.84" departLane="best" from="-366913700#3" to="273833832#6"/>
    <trip id="veh210" type="veh_passenger" depart="1792.91" departLane="best" departSpeed="max" from="273833832#0" to="273833832#0"/>
    <trip id="veh211" type="veh_passenger" depart="1801.45" departLane="best" from="-366913700#4" to="-52664437#1"/>
    <trip id="veh212" type="veh_passenger" depart="1809.99" departLane="best" departSpeed="max" from="273833832#0" to="104902792#0"/>
    <trip id="veh214" type="veh_passenger" depart="1827.07" departLane="best" from="177566558#1" to="177566523#8"/>
    <trip id="veh215" type="veh_passenger" depart="1835.60" departLane="best" from="273833832#4" to="177566523#2"/>
    <trip id="veh216" type="veh_passenger" depart="1844.14" departLane="best" departSpeed="max" from="273833832#0" to="-692042225"/>
    <trip id="veh217" type="veh_passenger" depart="1852.68" departLane="best" from="-622415769#0" to="-366913701#6"/>
    <trip id="veh218" type="veh_passenger" depart="1861.22" departLane="best" from="-52514847#1" to="-366913701#6"/>
    <trip id="veh219" type="veh_passenger" depart="1869.75" departLane="best" from="177566558#2" to="273833832#6"/>
    <trip id="veh220" type="veh_passenger" depart="1878.29" departLane="best" from="-52514846#3" to="-52664437#0"/>
    <trip id="veh222" type="veh_passenger" depart="1895.37" departLane="best" from="723323006#0" to="177566558#5"/>
    <trip id="veh223" type="veh_passenger" depart="1903.90" departLane="best" from="-52514847#1" to="-547023629#0"/>
    <trip id="veh224" type="veh_passenger" depart="1912.44" departLane="best" from="723323006#0" to="177566559#4"/>
    <trip id="veh225" type="veh_passenger" depart="1920.98" departLane="best" departSpeed="max" from="273833832#0" to="-366913701#8"/>
    <trip id="veh226" type="veh_passenger" depart="1929.52" departLane="best" from="52514846#2" to="177566556#2"/>
    <trip id="veh227" type="veh_passenger" depart="1938.06" departLane="best" from="52514846#3" to="177566559#5"/>
    <trip id="veh228" type="veh_passenger" depart="1946.59" departLane="best" from="177566523#7" to="177566523#8"/>
    <trip id="veh229" type="veh_passenger" depart="1955.13" departLane="best" from="-52514846#3" to="-22843127#0"/>
    <trip id="veh230" type="veh_passenger" depart="1963.67" departLane="best" from="366913701#8" to="177566523#7"/>
    <trip id="veh231" type="veh_passenger" depart="1972.21" departLane="best" from="-22843127#1" to="-52514845#0"/>
    <trip id="veh232" type="veh_passenger" depart="1980.74" departLane="best" from="723552318#2" to="-366913701#6"/>
    <trip id="veh233" type="veh_passenger" depart="1989.28" departLane="best" from="366913701#1" to="-52664437#2"/>
    <trip id="veh234" type="veh_passenger" depart="1997.82" departLane="best" departSpeed="max" from="177566558#0" to="177566523#8"/>
    <trip id="veh235" type="veh_passenger" depart="2006.36" departLane="best" from="723552318#1" to="104902792#0"/>
    <trip id="veh236" type="veh_passenger" depart="2014.89" departLane="best" from="22843127#0" to="215261251#1"/>
    <trip id="veh237" type="veh_passenger" depart="2023.43" departLane="best" from="273833832#4" to="622415769#1"/>
    <trip id="veh238" type="veh_passenger" depart="2031.97" departLane="best" departSpeed="max" from="273833832#0" to="-52514845#2"/>
    <trip id="veh239" type="veh_passenger" depart="2040.51" departLane="best" from="-104902792#0" to="177566523#8"/>
    <trip id="veh240" type="veh_passenger" depart="2049.05" departLane="best" from="185467797#1" to="-723323006#2"/>
    <trip id="veh241" type="veh_passenger" depart="2057.58" departLane="best" from="-547023629#0" to="273833832#6"/>
    <trip id="veh242" type="veh_passenger" depart="2066.12" departLane="best" departSpeed="max" from="273833832#0" to="547023629#0"/>
    <trip id="veh243" type="veh_passenger" depart="2074.66" departLane="best" from="366913701#1" to="22843134"/>
    <trip id="veh244" type="veh_passenger" depart="2083.20" departLane="best" departSpeed="max" from="273833832#0" to="547023629#2"/>
    <trip id="veh245" type="veh_passenger" depart="2091.73" departLane="best" from="177566523#4" to="177566559#2"/>
    <trip id="veh246" type="veh_passenger" depart="2100.27" departLane="best" departSpeed="max" from="273833832#0" to="52663746"/>
    <trip id="veh247" type="veh_passenger" depart="2108.81" departLane="best" from="273833832#5" to="177566559#5"/>
    <trip id="veh248" type="veh_passenger" depart="2117.35" departLane="best" from="-723323006#0" to="-366913701#7"/>
    <trip id="veh249" type="veh_passenger" depart="2125.88" departLane="best" departSpeed="max" from="273833832#0" to="273833832#5"/>
    <trip id="veh250" type="veh_passenger" depart="2134.42" departLane="best" from="177566556#0" to="-366913700#2"/>
    <trip id="veh251" type="veh_passenger" depart="2142.96" departLane="best" from="-185467797#4" to="177566523#8"/>
    <trip id="veh252" type="veh_passenger" depart="2151.50" departLane="best" from="104902792#2" to="-622415769#1"/>
    <trip id="veh253" type="veh_passenger" depart="2160.04" departLane="best" from="52511313#1" to="177566559#5"/>
    <trip id="veh254" type="veh_passenger" depart="2168.57" departLane="best" from="622415793#0" to="992408934"/>
    <trip id="veh255" type="veh_passenger" depart="2177.11" departLane="best" departSpeed="max" from="273833832#0" to="-672840525"/>
    <trip id="veh256" type="veh_passenger" depart="2185.65" departLane="best" from="-215261251#0" to="273833832#6"/>
    <trip id="veh257" type="veh_passenger" depart="2194.19" departLane="best" from="52664437#2" to="-52514846#3"/>
    <trip id="veh260" type="veh_passenger" depart="2219.80" departLane="best" departSpeed="max" from="177566523#0" to="177566523#2"/>
    <trip id="veh261" type="veh_passenger" depart="2228.34" departLane="best" departSpeed="max" from="273833832#0" to="52514845#3"/>
    <trip id="veh262" type="veh_passenger" depart="2236.87" departLane="best" departSpeed="max" from="177566523#0" to="273833832#5"/>
    <trip id="veh263" type="veh_passenger" depart="2245.41" departLane="best" from="-723323006#0" to="622415769#1"/>
    <trip id="veh264" type="veh_passenger" depart="2253.95" departLane="best" from="366913701#7" to="177566559#3"/>
    <trip id="veh265" type="veh_passenger" depart="2262.49" departLane="best" from="177566523#6" to="104902792#2"/>
    <trip id="veh266" type="veh_passenger" depart="2271.03" departLane="best" from="723552318#1" to="273833832#1"/>