<?xml version="1.0" encoding="UTF-8"?>

<!-- generated on 2021-12-06 01:41:30 by Eclipse SUMO duarouter Version 1.9.2
<configuration xmlns:xsi="http://www.w3.org/2001/XMLSchema-instance" xsi:noNamespaceSchemaLocation="http://sumo.dlr.de/xsd/duarouterConfiguration.xsd">

    <input>
        <net-file value="C:\Users\saurabh\Sumo\2021-12-06-01-41-26\osm.net.xml"/>
        <route-files value="C:\Users\saurabh\Sumo\2021-12-06-01-41-26\osm.motorcycle.trips.xml"/>
    </input>

    <output>
        <output-file value="C:\Users\saurabh\Sumo\2021-12-06-01-41-26\osm.motorcycle.trips.xml.tmp"/>
        <write-trips value="true"/>
    </output>

    <time>
        <begin value="0"/>
        <end value="3600"/>
    </time>

    <report>
        <no-warnings value="true"/>
        <ignore-errors value="true"/>
        <no-step-log value="true"/>
    </report>

</configuration>
-->

<routes xmlns:xsi="http://www.w3.org/2001/XMLSchema-instance" xsi:noNamespaceSchemaLocation="http://sumo.dlr.de/xsd/routes_file.xsd">
    <vType id="moto_motorcycle" vClass="motorcycle"/>
    <trip id="moto0" type="moto_motorcycle" depart="0.00" departLane="best" from="22843276#0" to="-185467797#1"/>
    <trip id="moto1" type="moto_motorcycle" depart="17.56" departLane="best" from="-52664437#1" to="-52514846#1"/>
    <trip id="moto2" type="moto_motorcycle" depart="35.13" departLane="best" from="366913700#4" to="273833832#4"/>
    <trip id="moto3" type="moto_motorcycle" depart="52.69" departLane="best" from="52664437#1" to="-366913700#1"/>
    <trip id="moto5" type="moto_motorcycle" depart="87.81" departLane="best" from="-52514846#0" to="177566558#5"/>
    <trip id="moto6" type="moto_motorcycle" depart="105.38" departLane="best" from="-22843125" to="-52514845#1"/>
    <trip id="moto7" type="moto_motorcycle" depart="122.94" departLane="best" from="-52514846#1" to="185467797#0"/>
    <trip id="moto8" type="moto_motorcycle" depart="140.50" departLane="best" from="52514845#0" to="-104902793"/>
    <trip id="moto9" type="moto_motorcycle" depart="158.07" departLane="best" from="52511313#1" to="273833832#5"/>
    <trip id="moto10" type="moto_motorcycle" depart="175.63" departLane="best" from="-672840525" to="-366913701#6"/>
    <trip id="moto11" type="moto_motorcycle" depart="193.19" departLane="best" from="692042225" to="-692042225"/>
    <trip id="moto12" type="moto_motorcycle" depart="210.76" departLane="best" from="-366913700#1" to="-366913700#2"/>
    <trip id="moto14" type="moto_motorcycle" depart="245.88" departLane="best" from="52514845#0" to="366913700#3"/>
    <trip id="moto15" type="moto_motorcycle" depart="263.44" departLane="best" from="177566558#8" to="699397460"/>
    <trip id="moto16" type="moto_motorcycle" depart="281.01" departLane="best" from="-992408934" to="177566559#3"/>
    <trip id="moto17" type="moto_motorcycle" depart="298.57" departLane="best" from="52514846#0" to="22843127#0"/>
    <trip id="moto18" type="moto_motorcycle" depart="316.13" departLane="best" from="52663744#3" to="177566559#4"/>
    <trip id="moto19" type="moto_motorcycle" depart="333.70" departLane="best" from="366913700#1" to="-22843127#2"/>
    <trip id="moto20" type="moto_motorcycle" depart="351.26" departLane="best" from="-52514846#1" to="-547023629#1"/>
    <trip id="moto21" type="moto_motorcycle" depart="368.82" departLane="best" from="-366913700#0" to="-52663744#2"/>
    <trip id="moto22" type="moto_motorcycle" depart="386.38" departLane="best" from="-366913700#2" to="-547023629#0"/>
    <trip id="moto23" type="moto_motorcycle" depart="403.95" departLane="best" from="22843276#0" to="-723552318#2"/>
    <trip id="moto24" type="moto_motorcycle" depart="421.51" departLane="best" from="-723552318#2" to="-52514846#0"/>
    <trip id="moto25" type="moto_motorcycle" depart="439.07" departLane="best" from="-52664437#0" to="622415793#0"/>
    <trip id="moto27" type="moto_motorcycle" depart="474.20" departLane="best" from="-52511312" to="366913700#3"/>
    <trip id="moto28" type="moto_motorcycle" depart="491.76" departLane="best" from="723552318#2" to="22843276#0"/>
    <trip id="moto29" type="moto_motorcycle" depart="509.33" departLane="best" from="177566559#2" to="273833832#5"/>
    <trip id="moto31" type="moto_motorcycle" depart="544.45" departLane="best" from="-622415769#0" to="-52664437#1"/>
    <trip id="moto32" type="moto_motorcycle" depart="562.01" departLane="best" from="-52514846#0" to="622415793#2"/>
    <trip id="moto33" type="moto_motorcycle" depart="579.58" departLane="best" from="52663746" to="-622415793#1"/>
    <trip id="moto34" type="moto_motorcycle" depart="597.14" departLane="best" from="547023629#2" to="177566556#1"/>
    <trip id="moto35" type="moto_motorcycle" depart="614.70" departLane="best" from="-52664437#0" to="-52663744#3"/>
    <trip id="moto36" type="moto_motorcycle" depart="632.27" departLane="best" from="177566559#2" to="-52664437#0"/>
    <trip id="moto37" type="moto_motorcycle" depart="649.83" departLane="best" from="185467797#0" to="547023629#0"/>
    <trip id="moto38" type="moto_motorcycle" depart="667.39" departLane="best" departSpeed="max" from="177566523#0" to="-52514846#1"/>
    <trip id="moto39" type="moto_motorcycle" depart="684.95" departLane="best" from="992408934" to="177566558#6"/>
    <trip id="moto40" type="moto_motorcycle" depart="702.52" departLane="best" from="-366913700#1" to="-22843127#2"/>
    <trip id="moto41" type="moto_motorcycle" depart="720.08" departLane="best" from="-366913700#3" to="22843127#1"/>
    <trip id="moto42" type="moto_motorcycle" depart="737.64" departLane="best" from="52511313#0" to="177566523#5"/>
    <trip id="moto43" type="moto_motorcycle" depart="755.21" departLane="best" from="-22843276#0" to="104902793"/>
    <trip id="moto44" type="moto_motorcycle" depart="772.77" departLane="best" from="992408934" to="177566558#8"/>
    <trip id="moto45" type="moto_motorcycle" depart="790.33" departLane="best" from="699397460" to="52663744#2"/>
    <trip id="moto46" type="moto_motorcycle" depart="807.90" departLane="best" from="-185467797#0" to="366913700#2"/>
    <trip id="moto47" type="moto_motorcycle" depart="825.46" departLane="best" from="273833832#3" to="177566559#0"/>
    <trip id="moto48" type="moto_motorcycle" depart="843.02" departLane="best" from="-52664437#0" to="22843276#0"/>
    <trip id="moto49" type="moto_motorcycle" depart="860.58" departLane="best" from="177566523#6" to="672840525"/>
    <trip id="moto50" type="moto_motorcycle" depart="878.15" departLane="best" from="52663746" to="-52664437#0"/>
    <trip id="moto51" type="moto_motorcycle" depart="895.71" departLane="best" from="177566558#4" to="-52511313#0"/>
    <trip id="moto52" type="moto_motorcycle" depart="913.27" departLane="best" from="547023629#2" to="52663744#3"/>
    <trip id="moto53" type="moto_motorcycle" depart="930.84" departLane="best" from="-547023629#2" to="22843276#0"/>
    <trip id="moto54" type="moto_motorcycle" depart="948.40" departLane="best" from="22843127#0" to="-366913701#5"/>
    <trip id="moto55" type="moto_motorcycle" depart="965.96" departLane="best" from="366913701#3" to="177566559#0"/>
    <trip id="moto56" type="moto_motorcycle" depart="983.52" departLane="best" from="366913701#6" to="177566558#8"/>
    <trip id="moto57" type="moto_motorcycle" depart="1001.09" departLane="best" from="-104902793" to="-622415793#2"/>
    <trip id="moto58" type="moto_motorcycle" depart="1018.65" departLane="best" from="-185467797#1" to="622415769#0"/>
    <trip id="moto59" type="moto_motorcycle" depart="1036.21" departLane="best" from="52664437#0" to="52514846#0"/>
    <trip id="moto60" type="moto_motorcycle" depart="1053.78" departLane="best" from="-622415769#0" to="-22843134"/>
    <trip id="moto61" type="moto_motorcycle" depart="1071.34" departLane="best" from="52664437#0" to="622415793#2"/>
    <trip id="moto63" type="moto_motorcycle" depart="1106.47" departLane="best" from="-22843276#0" to="366913701#3"/>
    <trip id="moto64" type="moto_motorcycle" depart="1124.03" departLane="best" from="366913701#4" to="-366913701#0"/>
    <trip id="moto65" type="moto_motorcycle" depart="1141.59" departLane="best" departSpeed="max" from="177566558#0" to="177566559#2"/>
    <trip id="moto66" type="moto_motorcycle" depart="1159.15" departLane="best" from="-52664437#0" to="52663746"/>
    <trip id="moto67" type="moto_motorcycle" depart="1176.72" departLane="best" from="177566523#3" to="-52514846#0"/>
    <trip id="moto68" type="moto_motorcycle" depart="1194.28" departLane="best" from="177566558#8" to="366913700#3"/>
    <trip id="moto69" type="moto_motorcycle" depart="1211.84" departLane="best" from="-52514845#0" to="-622415793#1"/>
    <trip id="moto70" type="moto_motorcycle" depart="1229.41" departLane="best" from="992408934" to="22843276#1"/>
    <trip id="moto71" type="moto_motorcycle" depart="1246.97" departLane="best" from="177566523#4" to="177566558#7"/>
    <trip id="moto72" type="moto_motorcycle" depart="1264.53" departLane="best" from="-366913700#4" to="-52663744#1"/>
    <trip id="moto73" type="moto_motorcycle" depart="1282.09" departLane="best" from="-672840525" to="185467797#0"/>
    <trip id="moto74" type="moto_motorcycle" depart="1299.66" departLane="best" from="-52663744#1" to="-52514846#1"/>
    <trip id="moto75" type="moto_motorcycle" depart="1317.22" departLane="best" from="-22843276#1" to="22843134"/>
    <trip id="moto76" type="moto_motorcycle" depart="1334.78" departLane="best" from="-52663744#1" to="547023629#1"/>
    <trip id="moto77" type="moto_motorcycle" depart="1352.35" departLane="best" from="52663744#2" to="-22843276#1"/>
    <trip id="moto78" type="moto_motorcycle" depart="1369.91" departLane="best" from="-52663744#2" to="273833832#3"/>
    <trip id="moto79" type="moto_motorcycle" depart="1387.47" departLane="best" from="-52514846#0" to="-366913701#2"/>
    <trip id="moto80" type="moto_motorcycle" depart="1405.04" departLane="best" from="622415793#0" to="177566559#4"/>
    <trip id="moto81" type="moto_motorcycle" depart="1422.60" departLane="best" departSpeed="max" from="177566558#0" to="52511312"/>
    <trip id="moto82" type="moto_motorcycle" depart="1440.16" departLane="best" from="52514845#0" to="-52514845#0"/>
    <trip id="moto83" type="moto_motorcycle" depart="1457.72" departLane="best" from="177566523#3" to="177566556#1"/>
    <trip id="moto84" type="moto_motorcycle" depart="1475.29" departLane="best" from="366913700#4" to="273833832#4"/>
    <trip id="moto85" type="moto_motorcycle" depart="1492.85" departLane="best" from="723552318#2" to="-366913700#2"/>
    <trip id="moto86" type="moto_motorcycle" depart="1510.41" departLane="best" departSpeed="max" from="177566523#0" to="-692042225"/>
    <trip id="moto87" type="moto_motorcycle" depart="1527.98" departLane="best" from="52663744#3" to="-52663744#3"/>
    <trip id="moto88" type="moto_motorcycle" depart="1545.54" departLane="best" from="-52511313#1" to="177566556#0"/>
    <trip id="moto89" type="moto_motorcycle" depart="1563.10" departLane="best" from="177566523#3" to="-547023629#0"/>
    <trip id="moto90" type="moto_motorcycle" depart="1580.66" departLane="best" from="-52663744#3" to="622415769#0"/>
    <trip id="moto91" type="moto_motorcycle" depart="1598.23" departLane="best" from="177566523#5" to="52663744#2"/>
    <trip id="moto92" type="moto_motorcycle" depart="1615.79" departLane="best" from="177566559#0" to="-22843127#2"/>
    <trip id="moto93" type="moto_motorcycle" depart="1633.35" departLane="best" from="992408934" to="52514846#0"/>
    <trip id="moto94" type="moto_motorcycle" depart="1650.92" departLane="best" from="699397460" to="622415769#0"/>
    <trip id="moto95" type="moto_motorcycle" depart="1668.48" departLane="best" from="52663744#0" to="-52511312"/>
    <trip id="moto96" type="moto_motorcycle" depart="1686.04" departLane="best" from="177566558#1" to="-52514846#0"/>
    <trip id="moto97" type="moto_motorcycle" depart="1703.61" departLane="best" departSpeed="max" from="177566523#0" to="-22843134"/>
    <trip id="moto98" type="moto_motorcycle" depart="1721.17" departLane="best" from="-992408934" to="723552318#2"/>
    <trip id="moto99" type="moto_motorcycle" depart="1738.73" departLane="best" from="177566523#6" to="177566523#6"/>
    <trip id="moto100" type="moto_motorcycle" depart="1756.29" departLane="best" from="692042225" to="992408934"/>
    <trip id="moto101" type="moto_motorcycle" depart="1773.86" departLane="best" from="177566559#2" to="366913700#2"/>
    <trip id="moto102" type="moto_motorcycle" depart="1791.42" departLane="best" from="-366913701#5" to="-547023629#2"/>
    <trip id="moto104" type="moto_motorcycle" depart="1826.55" departLane="best" from="177566558#8" to="366913701#0"/>
    <trip id="moto106" type="moto_motorcycle" depart="1861.67" departLane="best" from="177566558#4" to="52663744#0"/>
    <trip id="moto107" type="moto_motorcycle" depart="1879.23" departLane="best" from="-366913701#5" to="692042225"/>
    <trip id="moto108" type="moto_motorcycle" depart="1896.80" departLane="best" from="-366913700#0" to="-52511313#1"/>
    <trip id="moto109" type="moto_motorcycle" depart="1914.36" departLane="best" from="185467797#1" to="273833832#4"/>
    <trip id="moto110" type="moto_motorcycle" depart="1931.92" departLane="best" from="-52663744#1" to="-366913700#4"/>
    <trip id="moto111" type="moto_motorcycle" depart="1949.49" departLane="best" from="52664437#1" to="-52663744#3"/>
    <trip id="moto112" type="moto_motorcycle" depart="1967.05" departLane="best" from="185467797#1" to="22843127#0"/>
    <trip id="moto114" type="moto_motorcycle" depart="2002.18" departLane="best" from="177566558#6" to="622415793#0"/>
    <trip id="moto115" type="moto_motorcycle" depart="2019.74" departLane="best" from="-52514845#1" to="366913700#2"/>
    <trip id="moto116" type="moto_motorcycle" depart="2037.30" departLane="best" from="-52663744#2" to="177566523#2"/>
    <trip id="moto117" type="moto_motorcycle" depart="2054.86" departLane="best" from="273833832#2" to="-547023629#2"/>
    <trip id="moto118" type="moto_motorcycle" depart="2072.43" departLane="best" from="-622415793#1" to="366913701#1"/>
    <trip id="moto119" type="moto_motorcycle" depart="2089.99" departLane="best" from="-22843276#1" to="177566556#1"/>
    <trip id="moto120" type="moto_motorcycle" depart="2107.55" departLane="best" from="992408934" to="992408934"/>
    <trip id="moto121" type="moto_motorcycle" depart="2125.12" departLane="best" from="-22843276#1" to="-52514846#0"/>
    <trip id="moto122" type="moto_motorcycle" depart="2142.68" departLane="best" from="-52664437#0" to="622415793#0"/>
    <trip id="moto123" type="moto_motorcycle" depart="2160.24" departLane="best" from="52664437#0" to="52663746"/>
    <trip id="moto124" type="moto_motorcycle" depart="2177.80" departLane="best" from="-723552318#2" to="-366913701#6"/>
    <trip id="moto125" type="moto_motorcycle" depart="2195.37" departLane="best" from="52514846#1" to="366913700#0"/>
    <trip id="moto126" type="moto_motorcycle" depart="2212.93" departLane="best" from="22843127#0" to="723552318#2"/>
    <trip id="moto127" type="moto_motorcycle" depart="2230.49" departLane="best" from="52514845#1" to="-547023629#2"/>
    <trip id="moto128" type="moto_motorcycle" depart="2248.06" departLane="best" from="-366913701#2" to="-366913700#4"/>
    <trip id="moto129" type="moto_motorcycle" depart="2265.62" departLane="best" from="-366913700#3" to="177566559#3"/>
    <trip id="moto131" type="moto_motorcycle" depart="2300.75" departLane="best" from="366913700#2" to="-52514845#1"/>
    <trip id="moto132" type="moto_motorcycle" depart="2318.31" departLane="best" from="22843276#0" to="-52664437#0"/>
    <trip id="moto133" type="moto_motorcycle" depart="2335.87" departLane="best" from="177566558#1" to="547023629#1"/>
    <trip id="moto134" type="moto_motorcycle" depart="2353.43" departLane="best" from="52663744#0" to="-366913700#1"/>
    <trip id="moto135" type="moto_motorcycle" depart="2371.00" departLane="best" from="177566523#3" to="-547023629#0"/>
    <trip id="moto136" type="moto_motorcycle" depart="2388.56" departLane="best" from="-104902793" to="366913701#4"/>
    <trip id="moto137" type="moto_motorcycle" depart="2406.12" departLane="best" from="22843276#0" to="-52664437#0"/>
    <trip id="moto138" type="moto_motorcycle" depart="2423.69" departLane="best" from="366913701#0" to="177566559#2"/>
    <trip id="moto139" type="moto_motorcycle" depart="2441.25" departLane="best" from="177566523#3" to="-185467797#0"/>
    <trip id="moto140" type="moto_motorcycle" depart="2458.81" departLane="best" from="-22843276#1" to="52664437#0"/>
    <trip id="moto141" type="moto_motorcycle" depart="2476.37" departLane="best" from="547023629#1" to="177566559#2"/>
    <trip id="moto143" type="moto_motorcycle" depart="2511.50" departLane="best" from="-366913701#3" to="-366913701#0"/>
    <trip id="moto144" type="moto_motorcycle" depart="2529.06" departLane="best" from="-622415769#0" to="547023629#0"/>
    <trip id="moto145" type="moto_motorcycle" depart="2546.63" departLane="best" from="52511313#0" to="52663744#2"/>
    <trip id="moto146" type="moto_motorcycle" depart="2564.19" departLane="best" from="547023629#0" to="-52514846#0"/>
    <trip id="moto147" type="moto_motorcycle" depart="2581.75" departLane="best" from="-52663744#3" to="-366913700#2"/>
    <trip id="moto148" type="moto_motorcycle" depart="2599.32" departLane="best" from="366913701#6" to="52664437#0"/>
    <trip id="moto149" type="moto_motorcycle" depart="2616.88" departLane="best" departSpeed="max" from="177566523#0" to="22843127#0"/>
    <trip id="moto150" type="moto_motorcycle" depart="2634.44" departLane="best" from="-366913701#5" to="622415769#0"/>
    <trip id="moto151" type="moto_motorcycle" depart="2652.00" departLane="best" from="52663744#3" to="723552318#0"/>
    <trip id="moto152" type="moto_motorcycle" depart="2669.57" departLane="best" from="52514845#0" to="52664437#0"/>
    <trip id="moto153" type="moto_motorcycle" depart="2687.13" departLane="best" from="-185467797#1" to="366913700#4"/>
    <trip id="moto154" type="moto_motorcycle" depart="2704.69" departLane="best" from="-622415793#2" to="622415769#0"/>
    <trip id="moto155" type="moto_motorcycle" depart="2722.26" departLane="best" from="52511313#1" to="52663744#3"/>
    <trip id="moto156" type="moto_motorcycle" depart="2739.82" departLane="best" from="52514845#0" to="-52664437#0"/>
    <trip id="moto157" type="moto_motorcycle" depart="2757.38" departLane="best" from="52511312" to="-366913700#3"/>
    <trip id="moto158" type="moto_motorcycle" depart="2774.94" departLane="best" from="52663746" to="52663744#2"/>
    <trip id="moto159" type="moto_motorcycle" depart="2792.51" departLane="best" from="-52514846#1" to="52514845#0"/>
    <trip id="moto160" type="moto_motorcycle" depart="2810.07" departLane="best" from="177566556#0" to="-622415769#0"/>
    <trip id="moto161" type="moto_motorcycle" depart="2827.63" departLane="best" from="52511313#0" to="-52663744#1"/>
    <trip id="moto162" type="moto_motorcycle" depart="2845.20" departLane="best" from="-185467797#1" to="-52514845#0"/>
    <trip id="moto163" type="moto_motorcycle" depart="2862.76" departLane="best" from="-622415793#2" to="52663744#3"/>
    <trip id="moto164" type="moto_motorcycle" depart="2880.32" departLane="best" from="699397460" to="-547023629#0"/>
    <trip id="moto165" type="moto_motorcycle" depart="2897.88" departLane="best" from="22843276#1" to="177566523#3"/>
    <trip id="moto166" type="moto_motorcycle" depart="2915.45" departLane="best" from="723552318#0" to="177566559#0"/>
    <trip id="moto167" type="moto_motorcycle" depart="2933.01" departLane="best" from="622415793#2" to="-366913700#4"/>
    <trip id="moto168" type="moto_motorcycle" depart="2950.57" departLane="best" from="699397460" to="-52511313#0"/>
    <trip id="moto169" type="moto_motorcycle" depart="2968.14" departLane="best" from="692042225" to="-52664437#0"/>
    <trip id="moto170" type="moto_motorcycle" depart="2985.70" departLane="best" from="366913700#4" to="-622415793#1"/>
    <trip id="moto171" type="moto_motorcycle" depart="3003.26" departLane="best" from="22843127#0" to="177566558#6"/>
    <trip id="moto172" type="moto_motorcycle" depart="3020.83" departLane="best" from="-992408934" to="177566559#4"/>
    <trip id="moto173" type="moto_motorcycle" depart="3038.39" departLane="best" from="-52663746" to="366913700#1"/>
    <trip id="moto174" type="moto_motorcycle" depart="3055.95" departLane="best" from="-104902793" to="622415769#0"/>
    <trip id="moto175" type="moto_motorcycle" depart="3073.51" departLane="best" from="177566558#8" to="366913700#2"/>
    <trip id="moto176" type="moto_motorcycle" depart="3091.08" departLane="best" from="366913701#0" to="273833832#3"/>
    <trip id="moto177" type="moto_motorcycle" depart="3108.64" departLane="best" from="-723552318#1" to="-22843276#1"/>
    <trip id="moto178" type="moto_motorcycle" depart="3126.20" departLane="best" from="-622415769#0" to="52663744#0"/>
    <trip id="moto179" type="moto_motorcycle" depart="3143.77" departLane="best" from="366913700#3" to="-547023629#2"/>
    <trip id="moto180" type="moto_motorcycle" depart="3161.33" departLane="best" from="-622415769#0" to="177566523#4"/>
    <trip id="moto181" type="moto_motorcycle" depart="3178.89" departLane="best" departSpeed="max" from="177566523#0" to="-547023629#2"/>
    <trip id="moto182" type="moto_motorcycle" depart="3196.45" departLane="best" from="-366913701#0" to="177566523#5"/>
    <trip id="moto183" type="moto_motorcycle" depart="3214.02" departLane="best" from="622415793#2" to="273833832#4"/>
    <trip id="moto184" type="moto_motorcycle" depart="3231.58" departLane="best" from="547023629#0" to="22843127#0"/>
    <trip id="moto185" type="moto_motorcycle" depart="3249.14" departLane="best" from="-547023629#2" to="177566559#2"/>
    <trip id="moto186" type="moto_motorcycle" depart="3266.71" departLane="best" from="-104902793" to="-547023629#1"/>
    <trip id="moto188" type="moto_motorcycle" depart="3301.83" departLane="best" from="177566523#5" to="-52514846#0"/>
    <trip id="moto189" type="moto_motorcycle" depart="3319.40" departLane="best" departSpeed="max" from="177566558#0" to="547023629#0"/>
    <trip id="moto190" type="moto_motorcycle" depart="3336.96" departLane="best" from="52511313#0" to="-52511312"/>
    <trip id="moto191" type="moto_motorcycle" depart="3354.52" departLane="best" from="-366913700#0" to="177566558#6"/>
    <trip id="moto192" type="moto_motorcycle" depart="3372.08" departLane="best" from="22843276#0" to="-672840525"/>
    <trip id="moto193" type="moto_motorcycle" depart="3389.65" departLane="best" from="52514845#1" to="366913701#1"/>
    <trip id="moto194" type="moto_motorcycle" depart="3407.21" departLane="best" from="273833832#2" to="-52663744#1"/>
    <trip id="moto195" type="moto_motorcycle" depart="3424.77" departLane="best" from="-52514845#0" to="-185467797#1"/>
    <trip id="moto197" type="moto_motorcycle" depart="3459.90" departLane="best" from="52663744#0" to="-22843276#1"/>
    <trip id="moto198" type="moto_motorcycle" depart="3477.46" departLane="best" from="177566523#2" to="22843134"/>
    <trip id="moto199" type="moto_motorcycle" depart="3495.02" departLane="best" from="-52514845#0" to="273833832#5"/>
    <trip id="moto200" type="moto_motorcycle" depart="3512.59" departLane="best" from="177566558#3" to="-52663744#3"/>
    <trip id="moto201" type="moto_motorcycle" depart="3530.15" departLane="best" from="366913701#1" to="366913701#4"/>
    <trip id="moto202" type="moto_motorcycle" depart="3547.71" departLane="best" from="-366913700#3" to="177566523#6"/>
    <trip id="moto203" type="moto_motorcycle" depart="3565.28" departLane="best" from="-52511313#0" to="692042225"/>
    <trip id="moto204" type="moto_motorcycle" depart="3582.84" departLane="best" from="177566558#6" to="-22843127#2"/>
</routes>
