<?xml version="1.0" encoding="UTF-8"?>

<!-- generated on 2021-12-06 01:41:30 by Eclipse SUMO duarouter Version 1.9.2
<configuration xmlns:xsi="http://www.w3.org/2001/XMLSchema-instance" xsi:noNamespaceSchemaLocation="http://sumo.dlr.de/xsd/duarouterConfiguration.xsd">

    <input>
        <net-file value="C:\Users\saurabh\Sumo\2021-12-06-01-41-26\osm.net.xml"/>
        <route-files value="C:\Users\saurabh\Sumo\2021-12-06-01-41-26\osm.bus.trips.xml"/>
    </input>

    <output>
        <output-file value="C:\Users\saurabh\Sumo\2021-12-06-01-41-26\osm.bus.trips.xml.tmp"/>
        <write-trips value="true"/>
    </output>

    <time>
        <begin value="0"/>
        <end value="3600"/>
    </time>

    <report>
        <no-warnings value="true"/>
        <ignore-errors value="true"/>
        <no-step-log value="true"/>
    </report>

</configuration>
-->

<routes xmlns:xsi="http://www.w3.org/2001/XMLSchema-instance" xsi:noNamespaceSchemaLocation="http://sumo.dlr.de/xsd/routes_file.xsd">
    <vType id="bus_bus" vClass="bus"/>
    <trip id="bus1" type="bus_bus" depart="17.56" departLane="best" from="-52663744#2" to="177566559#4"/>
    <trip id="bus2" type="bus_bus" depart="35.13" departLane="best" departSpeed="max" from="177566523#0" to="177566559#3"/>
    <trip id="bus3" type="bus_bus" depart="52.69" departLane="best" from="52663744#0" to="177566559#4"/>
    <trip id="bus4" type="bus_bus" depart="70.25" departLane="best" departSpeed="max" from="177566523#0" to="-52663744#1"/>
    <trip id="bus5" type="bus_bus" depart="87.81" departLane="best" from="-52511313#1" to="366913700#0"/>
    <trip id="bus6" type="bus_bus" depart="105.38" departLane="best" from="547023629#1" to="177566556#1"/>
    <trip id="bus7" type="bus_bus" depart="122.94" departLane="best" departSpeed="max" from="177566523#0" to="-52663744#3"/>
    <trip id="bus8" type="bus_bus" depart="140.50" departLane="best" from="366913701#6" to="177566523#7"/>
    <trip id="bus9" type="bus_bus" depart="158.07" departLane="best" departSpeed="max" from="273833832#0" to="177566559#0"/>
    <trip id="bus10" type="bus_bus" depart="175.63" departLane="best" from="22843125" to="-52511312"/>
    <trip id="bus11" type="bus_bus" depart="193.19" departLane="best" departSpeed="max" from="177566558#0" to="177566559#3"/>
    <trip id="bus12" type="bus_bus" depart="210.76" departLane="best" from="-52514846#0" to="-692042225"/>
    <trip id="bus13" type="bus_bus" depart="228.32" departLane="best" from="-723552318#1" to="177566559#4"/>
    <trip id="bus14" type="bus_bus" depart="245.88" departLane="best" from="622415793#0" to="177566559#4"/>
    <trip id="bus15" type="bus_bus" depart="263.44" departLane="best" from="177566523#4" to="177566556#1"/>
    <trip id="bus16" type="bus_bus" depart="281.01" departLane="best" from="-52514845#1" to="177566556#1"/>
    <trip id="bus17" type="bus_bus" depart="298.57" departLane="best" departSpeed="max" from="177566558#0" to="-52663744#2"/>
    <trip id="bus18" type="bus_bus" depart="316.13" departLane="best" departSpeed="max" from="177566523#0" to="-22843276#0"/>
    <trip id="bus19" type="bus_bus" depart="333.70" departLane="best" from="177566556#0" to="177566523#7"/>
    <trip id="bus20" type="bus_bus" depart="351.26" departLane="best" from="699397460" to="177566559#4"/>
    <trip id="bus21" type="bus_bus" depart="368.82" departLane="best" from="-22843276#0" to="177566559#4"/>
    <trip id="bus22" type="bus_bus" depart="386.38" departLane="best" from="177566558#1" to="52514846#1"/>
    <trip id="bus23" type="bus_bus" depart="403.95" departLane="best" from="177566523#3" to="177566559#4"/>
    <trip id="bus24" type="bus_bus" depart="421.51" departLane="best" from="-52514846#1" to="273833832#5"/>
    <trip id="bus25" type="bus_bus" depart="439.07" departLane="best" from="-52663746" to="177566523#7"/>
    <trip id="bus26" type="bus_bus" depart="456.64" departLane="best" departSpeed="max" from="273833832#0" to="-672840525"/>
    <trip id="bus27" type="bus_bus" depart="474.20" departLane="best" from="-22843276#1" to="177566556#1"/>
    <trip id="bus28" type="bus_bus" depart="491.76" departLane="best" departSpeed="max" from="273833832#0" to="-185467797#0"/>
    <trip id="bus29" type="bus_bus" depart="509.33" departLane="best" departSpeed="max" from="273833832#0" to="622415793#0"/>
    <trip id="bus30" type="bus_bus" depart="526.89" departLane="best" departSpeed="max" from="177566558#0" to="52664437#1"/>
    <trip id="bus31" type="bus_bus" depart="544.45" departLane="best" from="52514845#1" to="177566559#4"/>
    <trip id="bus32" type="bus_bus" depart="562.01" departLane="best" from="-366913701#6" to="-366913701#3"/>
    <trip id="bus33" type="bus_bus" depart="579.58" departLane="best" departSpeed="max" from="177566558#0" to="-692042225"/>
    <trip id="bus34" type="bus_bus" depart="597.14" departLane="best" from="22843276#0" to="177566523#7"/>
    <trip id="bus35" type="bus_bus" depart="614.70" departLane="best" departSpeed="max" from="177566523#0" to="177566559#4"/>
    <trip id="bus36" type="bus_bus" depart="632.27" departLane="best" from="-52664437#1" to="273833832#5"/>
    <trip id="bus37" type="bus_bus" depart="649.83" departLane="best" departSpeed="max" from="273833832#0" to="-723552318#2"/>
    <trip id="bus38" type="bus_bus" depart="667.39" departLane="best" from="-672840525" to="177566523#7"/>
    <trip id="bus39" type="bus_bus" depart="684.95" departLane="best" departSpeed="max" from="177566523#0" to="-622415793#2"/>
    <trip id="bus40" type="bus_bus" depart="702.52" departLane="best" from="-366913701#2" to="177566523#7"/>
    <trip id="bus41" type="bus_bus" depart="720.08" departLane="best" from="177566523#4" to="177566559#4"/>
    <trip id="bus42" type="bus_bus" depart="737.64" departLane="best" departSpeed="max" from="273833832#0" to="177566556#1"/>
    <trip id="bus43" type="bus_bus" depart="755.21" departLane="best" departSpeed="max" from="177566558#0" to="52664437#1"/>
    <trip id="bus44" type="bus_bus" depart="772.77" departLane="best" departSpeed="max" from="273833832#0" to="-52663744#3"/>
    <trip id="bus45" type="bus_bus" depart="790.33" departLane="best" from="-52664437#0" to="177566556#1"/>
    <trip id="bus46" type="bus_bus" depart="807.90" departLane="best" departSpeed="max" from="177566558#0" to="-52664437#1"/>
    <trip id="bus47" type="bus_bus" depart="825.46" departLane="best" departSpeed="max" from="273833832#0" to="-104902793"/>
    <trip id="bus48" type="bus_bus" depart="843.02" departLane="best" from="-366913700#4" to="177566523#7"/>
    <trip id="bus49" type="bus_bus" depart="860.58" departLane="best" from="-52664437#0" to="52514846#0"/>
    <trip id="bus50" type="bus_bus" depart="878.15" departLane="best" departSpeed="max" from="177566558#0" to="366913701#6"/>
    <trip id="bus51" type="bus_bus" depart="895.71" departLane="best" departSpeed="max" from="273833832#0" to="723552318#2"/>
    <trip id="bus52" type="bus_bus" depart="913.27" departLane="best" from="-52663744#3" to="273833832#5"/>
    <trip id="bus53" type="bus_bus" depart="930.84" departLane="best" from="177566523#3" to="52664437#1"/>
    <trip id="bus54" type="bus_bus" depart="948.40" departLane="best" departSpeed="max" from="177566523#0" to="177566559#4"/>
    <trip id="bus55" type="bus_bus" depart="965.96" departLane="best" from="-366913701#3" to="177566556#1"/>
    <trip id="bus56" type="bus_bus" depart="983.52" departLane="best" departSpeed="max" from="273833832#0" to="366913700#3"/>
    <trip id="bus57" type="bus_bus" depart="1001.09" departLane="best" from="672840525" to="177566523#7"/>
    <trip id="bus58" type="bus_bus" depart="1018.65" departLane="best" departSpeed="max" from="273833832#0" to="22843127#0"/>
    <trip id="bus59" type="bus_bus" depart="1036.21" departLane="best" from="52514846#1" to="52511313#1"/>
    <trip id="bus60" type="bus_bus" depart="1053.78" departLane="best" from="-547023629#1" to="52514846#1"/>
    <trip id="bus61" type="bus_bus" depart="1071.34" departLane="best" departSpeed="max" from="177566558#0" to="185467797#1"/>
    <trip id="bus62" type="bus_bus" depart="1088.90" departLane="best" from="-52663744#1" to="366913701#6"/>
    <trip id="bus63" type="bus_bus" depart="1106.47" departLane="best" from="-723552318#1" to="52663744#3"/>
    <trip id="bus64" type="bus_bus" depart="1124.03" departLane="best" departSpeed="max" from="273833832#0" to="22843134"/>
    <trip id="bus65" type="bus_bus" depart="1141.59" departLane="best" departSpeed="max" from="177566558#0" to="366913701#4"/>
    <trip id="bus66" type="bus_bus" depart="1159.15" departLane="best" from="177566566" to="177566556#1"/>
    <trip id="bus67" type="bus_bus" depart="1176.72" departLane="best" from="177566558#6" to="177566523#7"/>
    <trip id="bus68" type="bus_bus" depart="1194.28" departLane="best" from="52663744#3" to="177566559#4"/>
    <trip id="bus69" type="bus_bus" depart="1211.84" departLane="best" from="52514845#0" to="177566523#7"/>
    <trip id="bus70" type="bus_bus" depart="1229.41" departLane="best" from="177566558#5" to="177566556#1"/>
    <trip id="bus71" type="bus_bus" depart="1246.97" departLane="best" from="723552318#2" to="-692042225"/>
    <trip id="bus72" type="bus_bus" depart="1264.53" departLane="best" departSpeed="max" from="273833832#0" to="-52511313#0"/>
    <trip id="bus73" type="bus_bus" depart="1282.09" departLane="best" from="-52511313#1" to="-366913700#0"/>
    <trip id="bus74" type="bus_bus" depart="1299.66" departLane="best" from="-104902793" to="177566556#1"/>
    <trip id="bus75" type="bus_bus" depart="1317.22" departLane="best" from="-52663744#3" to="273833832#5"/>
    <trip id="bus76" type="bus_bus" depart="1334.78" departLane="best" from="273833832#3" to="177566556#1"/>
    <trip id="bus77" type="bus_bus" depart="1352.35" departLane="best" departSpeed="max" from="273833832#0" to="547023629#2"/>
    <trip id="bus78" type="bus_bus" depart="1369.91" departLane="best" departSpeed="max" from="273833832#0" to="622415769#0"/>
    <trip id="bus79" type="bus_bus" depart="1387.47" departLane="best" from="366913700#4" to="177566559#4"/>
    <trip id="bus80" type="bus_bus" depart="1405.04" departLane="best" departSpeed="max" from="273833832#0" to="273833832#5"/>
    <trip id="bus81" type="bus_bus" depart="1422.60" departLane="best" from="52514845#1" to="177566559#4"/>
    <trip id="bus82" type="bus_bus" depart="1440.16" departLane="best" departSpeed="max" from="273833832#0" to="-547023629#2"/>
    <trip id="bus83" type="bus_bus" depart="1457.72" departLane="best" departSpeed="max" from="273833832#0" to="52514846#1"/>
    <trip id="bus84" type="bus_bus" depart="1475.29" departLane="best" from="177566558#7" to="177566523#7"/>
    <trip id="bus85" type="bus_bus" depart="1492.85" departLane="best" from="22843125" to="-52664437#0"/>
    <trip id="bus86" type="bus_bus" depart="1510.41" departLane="best" departSpeed="max" from="177566558#0" to="-52511312"/>
    <trip id="bus87" type="bus_bus" depart="1527.98" departLane="best" departSpeed="max" from="273833832#0" to="52511313#1"/>
    <trip id="bus88" type="bus_bus" depart="1545.54" departLane="best" from="52663744#3" to="177566556#1"/>
    <trip id="bus89" type="bus_bus" depart="1563.10" departLane="best" from="177566558#5" to="177566556#1"/>
    <trip id="bus90" type="bus_bus" depart="1580.66" departLane="best" from="366913700#0" to="177566523#7"/>
    <trip id="bus91" type="bus_bus" depart="1598.23" departLane="best" departSpeed="max" from="273833832#0" to="-52511312"/>
    <trip id="bus92" type="bus_bus" depart="1615.79" departLane="best" from="52663744#3" to="177566556#1"/>
    <trip id="bus93" type="bus_bus" depart="1633.35" departLane="best" from="-366913701#5" to="177566556#1"/>
    <trip id="bus94" type="bus_bus" depart="1650.92" departLane="best" from="-52664437#1" to="-547023629#0"/>
    <trip id="bus95" type="bus_bus" depart="1668.48" departLane="best" from="-185467797#0" to="366913701#6"/>
    <trip id="bus96" type="bus_bus" depart="1686.04" departLane="best" from="-52511312" to="177566556#1"/>
    <trip id="bus97" type="bus_bus" depart="1703.61" departLane="best" from="-723552318#2" to="177566559#4"/>
    <trip id="bus98" type="bus_bus" depart="1721.17" departLane="best" from="22843276#0" to="177566523#7"/>
    <trip id="bus99" type="bus_bus" depart="1738.73" departLane="best" from="-52664437#0" to="52514846#0"/>
    <trip id="bus100" type="bus_bus" depart="1756.29" departLane="best" departSpeed="max" from="177566558#0" to="-52664437#0"/>
    <trip id="bus101" type="bus_bus" depart="1773.86" departLane="best" from="177566559#3" to="177566559#4"/>
    <trip id="bus102" type="bus_bus" depart="1791.42" departLane="best" from="-547023629#1" to="177566559#4"/>
    <trip id="bus103" type="bus_bus" depart="1808.98" departLane="best" departSpeed="max" from="273833832#0" to="366913700#2"/>
    <trip id="bus104" type="bus_bus" depart="1826.55" departLane="best" from="177566558#1" to="52664437#1"/>
    <trip id="bus105" type="bus_bus" depart="1844.11" departLane="best" from="-622415769#0" to="366913701#6"/>
    <trip id="bus106" type="bus_bus" depart="1861.67" departLane="best" from="22843125" to="177566523#2"/>
    <trip id="bus107" type="bus_bus" depart="1879.23" departLane="best" departSpeed="max" from="273833832#0" to="273833832#5"/>
    <trip id="bus108" type="bus_bus" depart="1896.80" departLane="best" departSpeed="max" from="273833832#0" to="52514845#1"/>
    <trip id="bus109" type="bus_bus" depart="1914.36" departLane="best" from="22843134" to="52664437#1"/>
    <trip id="bus110" type="bus_bus" depart="1931.92" departLane="best" from="177566523#6" to="177566559#4"/>
    <trip id="bus111" type="bus_bus" depart="1949.49" departLane="best" from="-52511313#1" to="-366913701#3"/>
    <trip id="bus112" type="bus_bus" depart="1967.05" departLane="best" from="692042225" to="366913701#6"/>
    <trip id="bus113" type="bus_bus" depart="1984.61" departLane="best" departSpeed="max" from="273833832#0" to="177566559#4"/>
    <trip id="bus114" type="bus_bus" depart="2002.18" departLane="best" from="-622415793#2" to="177566523#7"/>
    <trip id="bus115" type="bus_bus" depart="2019.74" departLane="best" from="-366913701#3" to="177566556#1"/>
    <trip id="bus116" type="bus_bus" depart="2037.30" departLane="best" departSpeed="max" from="273833832#0" to="366913700#2"/>
    <trip id="bus117" type="bus_bus" depart="2054.86" departLane="best" from="622415793#2" to="177566523#7"/>
    <trip id="bus118" type="bus_bus" depart="2072.43" departLane="best" departSpeed="max" from="177566558#0" to="177566523#7"/>
    <trip id="bus119" type="bus_bus" depart="2089.99" departLane="best" from="104902793" to="177566523#7"/>
    <trip id="bus120" type="bus_bus" depart="2107.55" departLane="best" from="52514846#1" to="177566556#1"/>
    <trip id="bus121" type="bus_bus" depart="2125.12" departLane="best" departSpeed="max" from="273833832#0" to="22843134"/>
    <trip id="bus122" type="bus_bus" depart="2142.68" departLane="best" from="-366913701#2" to="177566559#4"/>
    <trip id="bus123" type="bus_bus" depart="2160.24" departLane="best" from="-366913701#6" to="52664437#1"/>
    <trip id="bus125" type="bus_bus" depart="2195.37" departLane="best" from="-52511313#1" to="-22843134"/>
    <trip id="bus126" type="bus_bus" depart="2212.93" departLane="best" from="366913700#3" to="177566556#1"/>
    <trip id="bus127" type="bus_bus" depart="2230.49" departLane="best" from="177566558#5" to="177566556#1"/>
    <trip id="bus128" type="bus_bus" depart="2248.06" departLane="best" departSpeed="max" from="177566558#0" to="177566523#7"/>
    <trip id="bus130" type="bus_bus" depart="2283.18" departLane="best" from="177566558#6" to="177566556#1"/>
    <trip id="bus131" type="bus_bus" depart="2300.75" departLane="best" departSpeed="max" from="273833832#0" to="366913701#0"/>
    <trip id="bus132" type="bus_bus" depart="2318.31" departLane="best" departSpeed="max" from="177566523#0" to="-52511312"/>
    <trip id="bus133" type="bus_bus" depart="2335.87" departLane="best" from="52511313#0" to="177566559#4"/>
    <trip id="bus134" type="bus_bus" depart="2353.43" departLane="best" from="185467797#0" to="177566559#4"/>
    <trip id="bus135" type="bus_bus" depart="2371.00" departLane="best" departSpeed="max" from="273833832#0" to="-52663744#3"/>
    <trip id="bus136" type="bus_bus" depart="2388.56" departLane="best" from="52663744#2" to="177566559#4"/>
    <trip id="bus137" type="bus_bus" depart="2406.12" departLane="best" departSpeed="max" from="177566523#0" to="-366913701#6"/>
    <trip id="bus138" type="bus_bus" depart="2423.69" departLane="best" from="366913701#3" to="177566559#4"/>
    <trip id="bus139" type="bus_bus" depart="2441.25" departLane="best" departSpeed="max" from="273833832#0" to="-547023629#2"/>
    <trip id="bus142" type="bus_bus" depart="2493.94" departLane="best" departSpeed="max" from="273833832#0" to="-22843127#2"/>
    <trip id="bus143" type="bus_bus" depart="2511.50" departLane="best" from="-52511313#1" to="177566523#5"/>
    <trip id="bus144" type="bus_bus" depart="2529.06" departLane="best" from="177566559#3" to="177566559#4"/>
    <trip id="bus145" type="bus_bus" depart="2546.63" departLane="best" from="273833832#4" to="177566523#7"/>
    <trip id="bus146" type="bus_bus" depart="2564.19" departLane="best" from="-692042225" to="366913701#6"/>
    <trip id="bus147" type="bus_bus" depart="2581.75" departLane="best" departSpeed="max" from="177566523#0" to="-692042225"/>
    <trip id="bus148" type="bus_bus" depart="2599.32" departLane="best" from="-366913701#6" to="-52514846#1"/>
    <trip id="bus149" type="bus_bus" depart="2616.88" departLane="best" departSpeed="max" from="273833832#0" to="-52514845#0"/>
    <trip id="bus150" type="bus_bus" depart="2634.44" departLane="best" from="-22843276#1" to="177566556#1"/>
    <trip id="bus151" type="bus_bus" depart="2652.00" departLane="best" from="-672840525" to="177566556#1"/>
    <trip id="bus152" type="bus_bus" depart="2669.57" departLane="best" from="177566558#3" to="177566556#1"/>
    <trip id="bus153" type="bus_bus" depart="2687.13" departLane="best" from="52664437#1" to="177566556#1"/>
    <trip id="bus154" type="bus_bus" depart="2704.69" departLane="best" from="-692042225" to="177566556#1"/>
    <trip id="bus155" type="bus_bus" depart="2722.26" departLane="best" from="-366913701#6" to="-22843276#0"/>
    <trip id="bus156" type="bus_bus" depart="2739.82" departLane="best" from="-366913700#3" to="52664437#1"/>
    <trip id="bus157" type="bus_bus" depart="2757.38" departLane="best" from="-52664437#0" to="177566556#1"/>
    <trip id="bus158" type="bus_bus" depart="2774.94" departLane="best" from="-547023629#2" to="177566523#7"/>
    <trip id="bus159" type="bus_bus" depart="2792.51" departLane="best" departSpeed="max" from="273833832#0" to="-622415793#1"/>
    <trip id="bus160" type="bus_bus" depart="2810.07" departLane="best" from="-723552318#1" to="177566559#4"/>
    <trip id="bus161" type="bus_bus" depart="2827.63" departLane="best" departSpeed="max" from="177566523#0" to="366913701#4"/>
    <trip id="bus162" type="bus_bus" depart="2845.20" departLane="best" departSpeed="max" from="273833832#0" to="177566558#8"/>
    <trip id="bus163" type="bus_bus" depart="2862.76" departLane="best" from="22843276#1" to="177566523#7"/>
    <trip id="bus164" type="bus_bus" depart="2880.32" departLane="best" from="177566523#5" to="177566523#7"/>
    <trip id="bus165" type="bus_bus" depart="2897.88" departLane="best" departSpeed="max" from="273833832#0" to="-52664437#0"/>
    <trip id="bus166" type="bus_bus" depart="2915.45" departLane="best" from="366913700#4" to="177566556#1"/>
    <trip id="bus167" type="bus_bus" depart="2933.01" departLane="best" from="52511313#0" to="177566556#1"/>
    <trip id="bus168" type="bus_bus" depart="2950.57" departLane="best" from="-52663744#2" to="177566556#1"/>
    <trip id="bus169" type="bus_bus" depart="2968.14" departLane="best" from="-366913701#5" to="273833832#5"/>
    <trip id="bus170" type="bus_bus" depart="2985.70" departLane="best" from="-52663746" to="177566523#7"/>
    <trip id="bus171" type="bus_bus" depart="3003.26" departLane="best" departSpeed="max" from="273833832#0" to="-366913700#1"/>
    <trip id="bus172" type="bus_bus" depart="3020.83" departLane="best" from="-52664437#1" to="-185467797#1"/>
    <trip id="bus173" type="bus_bus" depart="3038.39" departLane="best" from="-52511313#1" to="366913701#1"/>
    <trip id="bus174" type="bus_bus" depart="3055.95" departLane="best" from="177566558#4" to="366913701#6"/>
    <trip id="bus175" type="bus_bus" depart="3073.51" departLane="best" from="22843125" to="52511313#1"/>
    <trip id="bus176" type="bus_bus" depart="3091.08" departLane="best" from="104902793" to="366913701#6"/>
    <trip id="bus177" type="bus_bus" depart="3108.64" departLane="best" departSpeed="max" from="273833832#0" to="622415793#2"/>
    <trip id="bus178" type="bus_bus" depart="3126.20" departLane="best" departSpeed="max" from="177566523#0" to="177566523#6"/>
    <trip id="bus179" type="bus_bus" depart="3143.77" departLane="best" departSpeed="max" from="273833832#0" to="622415793#2"/>
    <trip id="bus180" type="bus_bus" depart="3161.33" departLane="best" departSpeed="max" from="177566523#0" to="22843276#0"/>
    <trip id="bus181" type="bus_bus" depart="3178.89" departLane="best" departSpeed="max" from="177566523#0" to="177566559#4"/>
    <trip id="bus182" type="bus_bus" depart="3196.45" departLane="best" from="52514846#1" to="177566556#1"/>
    <trip id="bus183" type="bus_bus" depart="3214.02" departLane="best" from="52664437#1" to="177566556#1"/>
    <trip id="bus184" type="bus_bus" depart="3231.58" departLane="best" from="-22843125" to="177566559#3"/>
    <trip id="bus185" type="bus_bus" depart="3249.14" departLane="best" departSpeed="max" from="177566523#0" to="366913701#6"/>
    <trip id="bus186" type="bus_bus" depart="3266.71" departLane="best" from="-723552318#2" to="52663744#3"/>
    <trip id="bus187" type="bus_bus" depart="3284.27" departLane="best" from="-366913701#6" to="-52511313#1"/>
    <trip id="bus188" type="bus_bus" depart="3301.83" departLane="best" from="-692042225" to="273833832#5"/>
    <trip id="bus189" type="bus_bus" depart="3319.40" departLane="best" from="52664437#1" to="52514846#0"/>
    <trip id="bus190" type="bus_bus" depart="3336.96" departLane="best" departSpeed="max" from="273833832#0" to="273833832#5"/>
    <trip id="bus191" type="bus_bus" depart="3354.52" departLane="best" from="177566559#2" to="52511313#1"/>
    <trip id="bus192" type="bus_bus" depart="3372.08" departLane="best" from="22843276#0" to="177566559#4"/>
    <trip id="bus193" type="bus_bus" depart="3389.65" departLane="best" departSpeed="max" from="273833832#0" to="366913701#0"/>
    <trip id="bus194" type="bus_bus" depart="3407.21" departLane="best" departSpeed="max" from="273833832#0" to="-672840525"/>
    <trip id="bus195" type="bus_bus" depart="3424.77" departLane="best" departSpeed="max" from="177566523#0" to="177566559#4"/>
    <trip id="bus196" type="bus_bus" depart="3442.34" departLane="best" from="-692042225" to="177566556#1"/>
    <trip id="bus197" type="bus_bus" depart="3459.90" departLane="best" departSpeed="max" from="177566523#0" to="185467797#1"/>
    <trip id="bus198" type="bus_bus" depart="3477.46" departLane="best" departSpeed="max" from="177566558#0" to="52663744#3"/>
    <trip id="bus199" type="bus_bus" depart="3495.02" departLane="best" departSpeed="max" from="273833832#0" to="177566556#1"/>
    <trip id="bus200" type="bus_bus" depart="3512.59" departLane="best" departSpeed="max" from="177566523#0" to="177566523#7"/>
    <trip id="bus201" type="bus_bus" depart="3530.15" departLane="best" departSpeed="max" from="273833832#0" to="-366913701#2"/>
    <trip id="bus202" type="bus_bus" depart="3547.71" departLane="best" from="699397460" to="177566523#7"/>
    <trip id="bus203" type="bus_bus" depart="3565.28" departLane="best" from="723552318#0" to="177566559#4"/>
    <trip id="bus204" type="bus_bus" depart="3582.84" departLane="best" from="52511312" to="273833832#5"/>
</routes>
