<?xml version="1.0" encoding="UTF-8"?>

<!-- generated on 2021-12-06 01:41:28 by Eclipse SUMO netconvert Version 1.9.2
<configuration xmlns:xsi="http://www.w3.org/2001/XMLSchema-instance" xsi:noNamespaceSchemaLocation="http://sumo.dlr.de/xsd/netconvertConfiguration.xsd">

    <input>
        <type-files value="C:\Program%20Files%20(x86)\Eclipse\Sumo\data\typemap\osmNetconvert.typ.xml,C:\Program%20Files%20(x86)\Eclipse\Sumo\data\typemap\osmNetconvertUrbanDe.typ.xml,C:\Program%20Files%20(x86)\Eclipse\Sumo\data\typemap\osmNetconvertPedestrians.typ.xml,C:\Program%20Files%20(x86)\Eclipse\Sumo\data\typemap\osmNetconvertShips.typ.xml,C:\Program%20Files%20(x86)\Eclipse\Sumo\data\typemap\osmNetconvertBicycle.typ.xml"/>
        <osm-files value="osm_bbox.osm.xml"/>
    </input>

    <output>
        <output-file value="osm.net.xml"/>
        <output.street-names value="true"/>
        <output.original-names value="true"/>
    </output>

    <projection>
        <proj.utm value="true"/>
    </projection>

    <processing>
        <geometry.remove value="true"/>
        <roundabouts.guess value="true"/>
        <lefthand value="true"/>
    </processing>

    <tls_building>
        <tls.discard-simple value="true"/>
        <tls.join value="true"/>
        <tls.guess-signals value="true"/>
        <tls.default-type value="actuated"/>
    </tls_building>

    <ramp_guessing>
        <ramps.guess value="true"/>
    </ramp_guessing>

    <edge_removal>
        <keep-edges.by-vclass value="passenger"/>
    </edge_removal>

    <junctions>
        <junctions.join value="true"/>
        <junctions.corner-detail value="5"/>
    </junctions>

    <pedestrian>
        <crossings.guess value="true"/>
    </pedestrian>

    <report>
        <verbose value="true"/>
        <aggregate-warnings value="5"/>
    </report>

</configuration>
-->

<net version="1.9" junctionCornerDetail="5" walkingareas="true" lefthand="true" limitTurnSpeed="5.50" xmlns:xsi="http://www.w3.org/2001/XMLSchema-instance" xsi:noNamespaceSchemaLocation="http://sumo.dlr.de/xsd/net_file.xsd">

    <location netOffset="-279383.83,-2115362.39" convBoundary="0.00,-0.00,2372.04,1785.75" origBoundary="72.819690,19.119326,72.941679,19.143641" projParameter="+proj=utm +zone=43 +ellps=WGS84 +datum=WGS84 +units=m +no_defs"/>

    <type id="cycleway.lane" allow="bicycle" bikeLaneWidth="1.00"/>
    <type id="cycleway.lane|highway.residential" priority="3" numLanes="1" speed="13.89" disallow="pedestrian tram rail_urban rail rail_electric rail_fast ship" oneway="0" sidewalkWidth="2.00" bikeLaneWidth="1.00"/>
    <type id="cycleway.opposite_lane" allow="bicycle" bikeLaneWidth="1.00"/>
    <type id="cycleway.opposite_track" allow="bicycle" bikeLaneWidth="1.50"/>
    <type id="cycleway.track" allow="bicycle" bikeLaneWidth="1.50"/>
    <type id="highway.bridleway" priority="1" numLanes="1" speed="2.78" allow="pedestrian" oneway="1" width="2.00"/>
    <type id="highway.bus_guideway" priority="1" numLanes="1" speed="13.89" allow="bus" oneway="1"/>
    <type id="highway.cycleway" priority="1" numLanes="1" speed="8.33" allow="bicycle" oneway="0" width="1.00"/>
    <type id="highway.footway" priority="1" numLanes="1" speed="2.78" allow="pedestrian" oneway="1" width="2.00"/>
    <type id="highway.ford" priority="1" numLanes="1" speed="2.78" allow="army" oneway="0"/>
    <type id="highway.living_street" priority="2" numLanes="1" speed="2.78" disallow="tram rail_urban rail rail_electric rail_fast ship" oneway="0"/>
    <type id="highway.motorway" priority="14" numLanes="2" speed="27.78" allow="private emergency authority army vip passenger hov taxi bus coach delivery truck trailer motorcycle evehicle custom1 custom2" oneway="1"/>
    <type id="highway.motorway_link" priority="9" numLanes="1" speed="16.67" allow="private emergency authority army vip passenger hov taxi bus coach delivery truck trailer motorcycle evehicle custom1 custom2" oneway="1"/>
    <type id="highway.path" priority="1" numLanes="1" speed="2.78" allow="pedestrian bicycle" oneway="0" width="2.00"/>
    <type id="highway.pedestrian" priority="1" numLanes="1" speed="2.78" allow="pedestrian" oneway="1" width="2.00"/>
    <type id="highway.primary" priority="12" numLanes="2" speed="13.89" disallow="pedestrian tram rail_urban rail rail_electric rail_fast ship" oneway="0" sidewalkWidth="3.00"/>
    <type id="highway.primary_link" priority="7" numLanes="1" speed="13.89" disallow="pedestrian tram rail_urban rail rail_electric rail_fast ship" oneway="0" sidewalkWidth="3.00"/>
    <type id="highway.raceway" priority="15" numLanes="2" speed="83.33" allow="vip" oneway="0"/>
    <type id="highway.residential" priority="3" numLanes="1" speed="13.89" disallow="pedestrian tram rail_urban rail rail_electric rail_fast ship" oneway="0" sidewalkWidth="2.00"/>
    <type id="highway.secondary" priority="11" numLanes="1" speed="13.89" disallow="pedestrian tram rail_urban rail rail_electric rail_fast ship" oneway="0" sidewalkWidth="3.00"/>
    <type id="highway.secondary_link" priority="6" numLanes="1" speed="13.89" disallow="pedestrian tram rail_urban rail rail_electric rail_fast ship" oneway="0" sidewalkWidth="3.00"/>
    <type id="highway.service" priority="1" numLanes="1" speed="5.56" allow="pedestrian delivery bicycle" oneway="0"/>
    <type id="highway.stairs" priority="1" numLanes="1" speed="1.39" allow="pedestrian" oneway="1" width="2.00"/>
    <type id="highway.step" priority="1" numLanes="1" speed="1.39" allow="pedestrian" oneway="1" width="2.00"/>
    <type id="highway.steps" priority="1" numLanes="1" speed="1.39" allow="pedestrian" oneway="1" width="2.00"/>
    <type id="highway.tertiary" priority="10" numLanes="1" speed="13.89" disallow="pedestrian tram rail_urban rail rail_electric rail_fast ship" oneway="0" sidewalkWidth="3.00"/>
    <type id="highway.tertiary_link" priority="5" numLanes="1" speed="13.89" disallow="pedestrian tram rail_urban rail rail_electric rail_fast ship" oneway="0" sidewalkWidth="2.00"/>
    <type id="highway.track" priority="1" numLanes="1" speed="5.56" allow="pedestrian motorcycle moped bicycle" oneway="0"/>
    <type id="highway.trunk" priority="13" numLanes="2" speed="13.89" disallow="pedestrian bicycle tram rail_urban rail rail_electric rail_fast ship" oneway="0"/>
    <type id="highway.trunk_link" priority="8" numLanes="1" speed="13.89" disallow="pedestrian bicycle tram rail_urban rail rail_electric rail_fast ship" oneway="0"/>
    <type id="highway.unclassified" priority="4" numLanes="1" speed="13.89" disallow="pedestrian tram rail_urban rail rail_electric rail_fast ship" oneway="0" sidewalkWidth="2.00"/>
    <type id="highway.unsurfaced" priority="1" numLanes="1" speed="8.33" disallow="tram rail_urban rail rail_electric rail_fast ship" oneway="0"/>
    <type id="railway.highspeed" priority="21" numLanes="1" speed="69.44" allow="rail_fast" oneway="1"/>
    <type id="railway.light_rail" priority="19" numLanes="1" speed="27.78" allow="rail_urban" oneway="1"/>
    <type id="railway.preserved" priority="16" numLanes="1" speed="27.78" allow="rail" oneway="1"/>
    <type id="railway.rail" priority="20" numLanes="1" speed="44.44" allow="rail" oneway="1"/>
    <type id="railway.subway" priority="18" numLanes="1" speed="27.78" allow="rail_urban" oneway="1"/>
    <type id="railway.tram" priority="17" numLanes="1" speed="13.89" allow="tram" oneway="1"/>
    <type id="route.ferry" priority="2" numLanes="1" speed="10.00" allow="ship" oneway="0" width="5.00"/>
    <type id="waterway.canal" priority="1" numLanes="1" speed="10.00" allow="ship" oneway="0" width="5.00"/>
    <type id="waterway.river" priority="1" numLanes="1" speed="10.00" allow="ship" oneway="0" width="7.00"/>

    <edge id=":1209663102_0" function="internal">
        <lane id=":1209663102_0_0" index="0" disallow="pedestrian tram rail_urban rail rail_electric rail_fast ship" speed="6.29" length="11.42" shape="1586.93,709.01 1586.35,712.49 1584.95,714.42 1582.73,714.80 1579.69,713.62"/>
    </edge>
    <edge id=":1209663102_1" function="internal">
        <lane id=":1209663102_1_0" index="0" disallow="pedestrian tram rail_urban rail rail_electric rail_fast ship" speed="3.65" length="4.67" shape="1586.93,709.01 1587.68,710.24 1588.46,710.67 1589.28,710.30 1590.12,709.13"/>
    </edge>
    <edge id=":1209663102_2" function="internal">
        <lane id=":1209663102_2_0" index="0" disallow="pedestrian tram rail_urban rail rail_electric rail_fast ship" speed="12.05" length="9.16" shape="1590.99,721.57 1589.06,718.55 1588.90,715.95 1589.57,713.05"/>
    </edge>
    <edge id=":1209663102_3" function="internal">
        <lane id=":1209663102_3_0" index="0" disallow="pedestrian tram rail_urban rail rail_electric rail_fast ship" speed="13.89" length="13.92" shape="1590.99,721.57 1588.11,718.64 1585.86,716.95 1583.34,715.58 1579.69,713.62"/>
    </edge>
    <edge id=":1209663102_4" function="internal">
        <lane id=":1209663102_4_0" index="0" disallow="pedestrian tram rail_urban rail rail_electric rail_fast ship" speed="12.05" length="3.96" shape="1589.57,713.05 1590.12,709.13"/>
    </edge>
    <edge id=":1209663102_c0" function="crossing" crossingEdges="-104902793 104902793">
        <lane id=":1209663102_c0_0" index="0" allow="pedestrian" speed="1.00" length="6.40" width="4.00" shape="1591.64,711.20 1585.25,710.94"/>
    </edge>
    <edge id=":1209663102_w0" function="walkingarea">
        <lane id=":1209663102_w0_0" index="0" allow="pedestrian" speed="1.00" length="3.32" width="4.00" shape="1580.48,712.23 1581.97,709.62 1583.33,708.86 1585.33,708.94 1585.13,710.67 1584.68,711.93 1584.00,712.72 1583.07,713.03 1581.90,712.86"/>
    </edge>
    <edge id=":1209663102_w1" function="walkingarea">
        <lane id=":1209663102_w1_0" index="0" allow="pedestrian" speed="1.00" length="6.99" width="4.00" shape="1591.72,709.20 1593.72,709.28 1594.40,718.48 1592.17,720.49 1590.81,718.59 1590.32,716.96 1590.44,715.39 1590.90,713.70 1591.42,711.70"/>
    </edge>
    <edge id=":1879817526_0" function="internal">
        <lane id=":1879817526_0_0" index="0" disallow="pedestrian tram rail_urban rail rail_electric rail_fast ship" speed="6.67" length="9.62" shape="1414.09,562.99 1413.00,565.50 1411.43,567.06 1409.38,567.66 1406.87,567.32"/>
    </edge>
    <edge id=":1879817526_1" function="internal">
        <lane id=":1879817526_1_0" index="0" disallow="pedestrian tram rail_urban rail rail_electric rail_fast ship" speed="3.65" length="4.68" shape="1414.09,562.99 1414.45,564.39 1415.07,565.04 1415.96,564.93 1417.11,564.07"/>
    </edge>
    <edge id=":1879817526_2" function="internal">
        <lane id=":1879817526_2_0" index="0" disallow="pedestrian tram rail_urban rail rail_electric rail_fast ship" speed="6.50" length="5.04" shape="1420.97,571.15 1418.66,570.20 1417.25,568.70 1417.13,568.22"/>
    </edge>
    <edge id=":1879817526_3" function="internal">
        <lane id=":1879817526_3_0" index="0" disallow="pedestrian tram rail_urban rail rail_electric rail_fast ship" speed="13.89" length="14.61" shape="1420.97,571.15 1406.87,567.32"/>
    </edge>
    <edge id=":1879817526_4" function="internal">
        <lane id=":1879817526_4_0" index="0" disallow="pedestrian tram rail_urban rail rail_electric rail_fast ship" speed="6.50" length="4.23" shape="1417.13,568.22 1416.73,566.66 1417.11,564.07"/>
    </edge>
    <edge id=":1879817526_c0" function="crossing" crossingEdges="-185467797#1 185467797#1">
        <lane id=":1879817526_c0_0" index="0" allow="pedestrian" speed="1.00" length="6.40" width="4.00" shape="1418.10,566.43 1412.00,564.47"/>
    </edge>
    <edge id=":1879817526_w0" function="walkingarea">
        <lane id=":1879817526_w0_0" index="0" allow="pedestrian" speed="1.00" length="3.87" width="4.00" shape="1407.33,565.78 1407.91,563.87 1410.68,561.84 1412.60,562.40 1412.61,562.57 1412.06,563.87 1411.41,564.87 1410.61,565.57 1409.67,565.95 1408.57,566.02"/>
    </edge>
    <edge id=":1879817526_w1" function="walkingarea">
        <lane id=":1879817526_w1_0" index="0" allow="pedestrian" speed="1.00" length="3.47" width="4.00" shape="1418.71,564.53 1418.61,564.66 1420.53,565.22 1421.83,567.65 1421.35,569.60 1420.19,569.19 1419.32,568.60 1418.73,567.84 1418.42,566.91 1418.40,565.80"/>
    </edge>
    <edge id=":1879817556_0" function="internal">
        <lane id=":1879817556_0_0" index="0" disallow="pedestrian tram rail_urban rail rail_electric rail_fast ship" speed="13.89" length="14.75" shape="1455.85,605.21 1453.87,609.09 1452.79,611.89 1451.93,614.78 1450.59,618.95"/>
    </edge>
    <edge id=":1879817556_1" function="internal">
        <lane id=":1879817556_1_0" index="0" disallow="pedestrian tram rail_urban rail rail_electric rail_fast ship" speed="6.11" length="1.60" shape="1455.85,605.21 1457.22,606.04"/>
    </edge>
    <edge id=":1879817556_2" function="internal">
        <lane id=":1879817556_2_0" index="0" disallow="pedestrian tram rail_urban rail rail_electric rail_fast ship" speed="3.65" length="2.34" shape="1455.85,605.21 1455.97,606.64 1456.48,607.38"/>
    </edge>
    <edge id=":1879817556_11" function="internal">
        <lane id=":1879817556_11_0" index="0" disallow="pedestrian tram rail_urban rail rail_electric rail_fast ship" speed="6.11" length="4.94" shape="1457.22,606.04 1461.44,608.60"/>
    </edge>
    <edge id=":1879817556_12" function="internal">
        <lane id=":1879817556_12_0" index="0" disallow="pedestrian tram rail_urban rail rail_electric rail_fast ship" speed="3.65" length="2.34" shape="1456.48,607.38 1457.37,607.42 1458.65,606.75"/>
    </edge>
    <edge id=":1879817556_3" function="internal">
        <lane id=":1879817556_3_0" index="0" disallow="pedestrian tram rail_urban rail rail_electric rail_fast ship" speed="5.46" length="4.87" shape="1453.61,620.00 1454.81,616.79 1455.42,615.49"/>
    </edge>
    <edge id=":1879817556_4" function="internal">
        <lane id=":1879817556_4_0" index="0" disallow="pedestrian tram rail_urban rail rail_electric rail_fast ship" speed="13.89" length="14.22" shape="1453.61,620.00 1454.90,615.98 1455.72,613.20 1456.75,610.50 1458.65,606.75"/>
    </edge>
    <edge id=":1879817556_5" function="internal">
        <lane id=":1879817556_5_0" index="0" disallow="pedestrian tram rail_urban rail rail_electric rail_fast ship" speed="3.65" length="2.34" shape="1453.61,620.00 1453.25,618.61 1452.62,617.96"/>
    </edge>
    <edge id=":1879817556_13" function="internal">
        <lane id=":1879817556_13_0" index="0" disallow="pedestrian tram rail_urban rail rail_electric rail_fast ship" speed="5.46" length="2.94" shape="1455.42,615.49 1455.81,614.62 1456.62,613.50 1457.22,613.42"/>
    </edge>
    <edge id=":1879817556_14" function="internal">
        <lane id=":1879817556_14_0" index="0" disallow="pedestrian tram rail_urban rail rail_electric rail_fast ship" speed="3.65" length="2.34" shape="1452.62,617.96 1451.74,618.08 1450.59,618.95"/>
    </edge>
    <edge id=":1879817556_6" function="internal">
        <lane id=":1879817556_6_0" index="0" disallow="pedestrian tram rail_urban rail rail_electric rail_fast ship" speed="7.53" length="7.70" shape="1448.98,608.48 1450.78,609.90 1451.66,612.11 1451.59,615.13"/>
    </edge>
    <edge id=":1879817556_7" function="internal">
        <lane id=":1879817556_7_0" index="0" disallow="pedestrian tram rail_urban rail rail_electric rail_fast ship" speed="13.89" length="10.63" shape="1448.98,608.48 1451.61,609.63 1453.39,610.50 1455.03,611.59 1457.22,613.42"/>
        <lane id=":1879817556_7_1" index="1" disallow="pedestrian tram rail_urban rail rail_electric rail_fast ship" speed="13.89" length="10.63" shape="1450.29,605.56 1453.17,606.83 1455.12,607.79 1456.92,609.00 1459.33,611.01"/>
        <lane id=":1879817556_7_2" index="2" disallow="pedestrian tram rail_urban rail rail_electric rail_fast ship" speed="13.89" length="10.63" shape="1451.60,602.64 1454.74,604.03 1456.86,605.08 1458.81,606.40 1461.44,608.60"/>
    </edge>
    <edge id=":1879817556_10" function="internal">
        <lane id=":1879817556_10_0" index="0" disallow="pedestrian tram rail_urban rail rail_electric rail_fast ship" speed="6.40" length="8.17" shape="1451.60,602.64 1458.65,606.75"/>
    </edge>
    <edge id=":1879817556_15" function="internal">
        <lane id=":1879817556_15_0" index="0" disallow="pedestrian tram rail_urban rail rail_electric rail_fast ship" speed="7.53" length="3.95" shape="1451.59,615.13 1450.59,618.95"/>
    </edge>
    <edge id=":1879817556_c0" function="crossing" crossingEdges="-22843276#0 22843276#0">
        <lane id=":1879817556_c0_0" index="0" allow="pedestrian" speed="1.00" length="6.40" width="4.00" shape="1459.08,609.28 1453.48,606.18"/>
    </edge>
    <edge id=":1879817556_c1" function="crossing" crossingEdges="273833832#2">
        <lane id=":1879817556_c1_0" index="0" allow="pedestrian" speed="1.00" length="9.60" width="4.00" shape="1454.66,613.31 1460.99,606.08"/>
    </edge>
    <edge id=":1879817556_c2" function="crossing" crossingEdges="22843276#1 -22843276#1">
        <lane id=":1879817556_c2_0" index="0" allow="pedestrian" speed="1.00" length="6.40" width="4.00" shape="1449.73,616.53 1455.78,618.64"/>
    </edge>
    <edge id=":1879817556_c3" function="crossing" crossingEdges="273833832#0">
        <lane id=":1879817556_c3_0" index="0" allow="pedestrian" speed="1.00" length="9.60" width="4.00" shape="1454.08,602.00 1450.15,610.75"/>
    </edge>
    <edge id=":1879817556_w0" function="walkingarea">
        <lane id=":1879817556_w0_0" index="0" allow="pedestrian" speed="1.00" length="2.83" width="4.00" shape="1455.90,602.81 1452.25,601.18 1452.70,603.47 1454.45,604.43 1452.51,607.94"/>
    </edge>
    <edge id=":1879817556_w1" function="walkingarea">
        <lane id=":1879817556_w1_0" index="0" allow="pedestrian" speed="1.00" length="2.63" width="4.00" shape="1458.12,611.03 1460.05,607.53 1461.80,608.49 1462.49,607.40 1459.48,604.76"/>
    </edge>
    <edge id=":1879817556_w2" function="walkingarea">
        <lane id=":1879817556_w2_0" index="0" allow="pedestrian" speed="1.00" length="4.33" width="4.00" shape="1453.16,611.99 1456.17,614.62 1454.19,616.88 1457.01,621.19 1455.12,620.53 1456.44,616.75"/>
    </edge>
    <edge id=":1879817556_w3" function="walkingarea">
        <lane id=":1879817556_w3_0" index="0" allow="pedestrian" speed="1.00" length="5.09" width="4.00" shape="1449.07,618.42 1447.19,617.76 1447.09,612.67 1448.32,609.93 1449.23,610.57 1449.83,611.52 1450.12,612.78 1450.08,614.35 1449.74,616.23"/>
    </edge>
    <edge id=":1879817582_0" function="internal">
        <lane id=":1879817582_0_0" index="0" allow="bicycle" speed="5.39" length="8.62" shape="1468.78,634.11 1470.21,631.85 1471.77,630.85 1473.47,631.11 1475.30,632.63"/>
    </edge>
    <edge id=":1879817582_1" function="internal">
        <lane id=":1879817582_1_0" index="0" allow="bicycle" speed="13.89" length="27.92" width="1.00" shape="1468.78,634.11 1472.02,626.61 1473.27,620.98 1472.70,615.22 1470.51,607.32"/>
    </edge>
    <edge id=":1879817582_2" function="internal">
        <lane id=":1879817582_2_0" index="0" disallow="pedestrian bicycle tram rail_urban rail rail_electric rail_fast ship" speed="6.56" length="12.06" shape="1466.88,633.21 1468.82,630.25 1471.00,629.05 1473.44,629.60 1476.12,631.90"/>
    </edge>
    <edge id=":1879817582_3" function="internal">
        <lane id=":1879817582_3_0" index="0" disallow="pedestrian bicycle tram rail_urban rail rail_electric rail_fast ship" speed="13.89" length="26.34" shape="1466.88,633.21 1469.94,626.14 1471.11,620.82 1470.57,615.39 1468.50,607.94"/>
    </edge>
    <edge id=":1879817582_4" function="internal">
        <lane id=":1879817582_4_0" index="0" disallow="pedestrian bicycle tram rail_urban rail rail_electric rail_fast ship" speed="3.65" length="4.67" shape="1466.88,633.21 1466.67,631.78 1466.12,631.08 1465.22,631.10 1463.99,631.84"/>
    </edge>
    <edge id=":1879817582_5" function="internal">
        <lane id=":1879817582_5_0" index="0" allow="bicycle" speed="10.23" length="14.76" width="1.00" shape="1456.65,614.38 1460.51,618.50 1462.70,622.63 1463.23,626.78 1463.16,627.02"/>
        <lane id=":1879817582_5_1" index="1" disallow="pedestrian bicycle tram rail_urban rail rail_electric rail_fast ship" speed="10.77" length="16.88" shape="1457.37,613.55 1461.84,618.24 1464.43,622.85 1465.14,627.38 1465.01,627.90"/>
    </edge>
    <edge id=":1879817582_7" function="internal">
        <lane id=":1879817582_7_0" index="0" disallow="pedestrian tram rail_urban rail rail_electric rail_fast ship" speed="13.89" length="26.27" shape="1457.37,613.55 1463.25,618.68 1467.19,622.28 1470.92,626.10 1476.12,631.90"/>
    </edge>
    <edge id=":1879817582_8" function="internal">
        <lane id=":1879817582_8_0" index="0" allow="bicycle" speed="6.91" length="18.32" width="1.00" shape="1458.10,612.72 1462.73,614.98 1467.25,614.58 1470.29,611.90 1470.51,607.32"/>
    </edge>
    <edge id=":1879817582_9" function="internal">
        <lane id=":1879817582_9_0" index="0" disallow="pedestrian tram rail_urban rail rail_electric rail_fast ship" speed="13.89" length="26.89" shape="1459.48,611.14 1465.45,616.35 1469.46,620.01 1473.24,623.89 1478.52,629.79"/>
        <lane id=":1879817582_9_1" index="1" disallow="pedestrian tram rail_urban rail rail_electric rail_fast ship" speed="13.89" length="26.89" shape="1461.59,608.73 1467.65,614.03 1471.72,617.74 1475.56,621.68 1480.92,627.67"/>
    </edge>
    <edge id=":1879817582_11" function="internal">
        <lane id=":1879817582_11_0" index="0" disallow="pedestrian bicycle tram rail_urban rail rail_electric rail_fast ship" speed="5.95" length="13.08" shape="1461.59,608.73 1465.68,611.89 1468.20,612.81 1469.14,611.49 1468.50,607.94"/>
    </edge>
    <edge id=":1879817582_17" function="internal">
        <lane id=":1879817582_17_0" index="0" allow="bicycle" speed="10.23" length="4.06" width="1.00" shape="1463.16,627.02 1462.09,630.94"/>
    </edge>
    <edge id=":1879817582_18" function="internal">
        <lane id=":1879817582_18_0" index="0" disallow="pedestrian bicycle tram rail_urban rail rail_electric rail_fast ship" speed="10.77" length="4.07" shape="1465.01,627.90 1463.99,631.84"/>
    </edge>
    <edge id=":1879817582_12" function="internal">
        <lane id=":1879817582_12_0" index="0" allow="bicycle" speed="13.89" length="22.36" width="1.00" shape="1463.43,609.49 1465.19,615.81 1465.66,620.43 1464.68,624.94 1462.09,630.94"/>
    </edge>
    <edge id=":1879817582_13" function="internal">
        <lane id=":1879817582_13_0" index="0" allow="bicycle" speed="13.89" length="26.37" shape="1463.43,609.49 1465.68,616.98 1467.56,622.07 1470.35,626.65 1475.30,632.63"/>
    </edge>
    <edge id=":1879817582_14" function="internal">
        <lane id=":1879817582_14_0" index="0" disallow="pedestrian bicycle tram rail_urban rail rail_electric rail_fast ship" speed="13.89" length="23.94" shape="1465.44,608.87 1467.32,615.64 1467.82,620.58 1466.76,625.41 1463.99,631.84"/>
    </edge>
    <edge id=":1879817582_15" function="internal">
        <lane id=":1879817582_15_0" index="0" disallow="pedestrian bicycle tram rail_urban rail rail_electric rail_fast ship" speed="13.89" length="24.80" shape="1465.44,608.87 1468.23,615.44 1471.49,619.21 1475.60,622.52 1480.92,627.67"/>
    </edge>
    <edge id=":1879817582_16" function="internal">
        <lane id=":1879817582_16_0" index="0" disallow="pedestrian bicycle tram rail_urban rail rail_electric rail_fast ship" speed="3.65" length="4.67" shape="1465.44,608.87 1466.56,609.79 1467.44,609.93 1468.09,609.32 1468.50,607.94"/>
    </edge>
    <edge id=":1879817582_c0" function="crossing" crossingEdges="273833832#3">
        <lane id=":1879817582_c0_0" index="0" allow="pedestrian" speed="1.00" length="9.60" width="4.00" shape="1473.60,631.46 1480.80,625.11"/>
    </edge>
    <edge id=":1879817582_c1" function="crossing" crossingEdges="-622415793#1 622415793#0">
        <lane id=":1879817582_c1_0" index="0" allow="pedestrian" speed="1.00" length="8.40" width="4.00" shape="1462.49,628.92 1470.08,632.51"/>
    </edge>
    <edge id=":1879817582_c2" function="crossing" crossingEdges="273833832#2">
        <lane id=":1879817582_c2_0" index="0" allow="pedestrian" speed="1.00" length="9.60" width="4.00" shape="1464.15,608.85 1457.83,616.07"/>
    </edge>
    <edge id=":1879817582_c3" function="crossing" crossingEdges="622415793#2 -622415793#2">
        <lane id=":1879817582_c3_0" index="0" allow="pedestrian" speed="1.00" length="8.40" width="4.00" shape="1471.57,609.09 1463.54,611.55"/>
    </edge>
    <edge id=":1879817582_w0" function="walkingarea">
        <lane id=":1879817582_w0_0" index="0" allow="pedestrian" speed="1.00" length="3.48" width="4.00" shape="1474.92,632.96 1472.67,634.95 1471.04,635.18 1469.23,634.32 1470.06,632.87 1470.93,631.91 1471.85,631.44 1472.83,631.46 1473.85,631.97"/>
    </edge>
    <edge id=":1879817582_w1" function="walkingarea">
        <lane id=":1879817582_w1_0" index="0" allow="pedestrian" speed="1.00" length="10.53" width="4.00" shape="1461.64,630.73 1459.83,629.87 1454.34,617.01 1456.32,614.76 1459.00,617.41 1460.96,620.07 1462.20,622.73 1462.73,625.40 1462.54,628.06"/>
    </edge>
    <edge id=":1879817582_w2" function="walkingarea">
        <lane id=":1879817582_w2_0" index="0" allow="pedestrian" speed="1.00" length="2.47" width="4.00" shape="1465.65,610.16 1462.64,607.53 1461.04,610.22 1462.95,609.63 1464.12,613.46"/>
    </edge>
    <edge id=":1879817582_w3" function="walkingarea">
        <lane id=":1879817582_w3_0" index="0" allow="pedestrian" speed="1.00" length="13.66" width="4.00" shape="1470.99,607.18 1472.90,606.59 1482.12,626.61 1478.95,623.00 1476.67,620.22 1475.00,617.76 1473.68,615.11 1472.43,611.75"/>
    </edge>
    <edge id=":1879817626_0" function="internal">
        <lane id=":1879817626_0_0" index="0" disallow="pedestrian tram rail_urban rail rail_electric rail_fast ship" speed="13.89" length="85.13" shape="1556.28,691.09 1504.63,623.43"/>
    </edge>
    <edge id=":1879817626_1" function="internal">
        <lane id=":1879817626_1_0" index="0" disallow="pedestrian tram rail_urban rail rail_electric rail_fast ship" speed="13.89" length="89.56" shape="1556.28,691.09 1497.06,623.91"/>
        <lane id=":1879817626_1_1" index="1" disallow="pedestrian tram rail_urban rail rail_electric rail_fast ship" speed="13.89" length="89.56" shape="1553.88,693.21 1494.66,626.02"/>
        <lane id=":1879817626_1_2" index="2" disallow="pedestrian tram rail_urban rail rail_electric rail_fast ship" speed="13.89" length="89.56" shape="1551.48,695.32 1492.26,628.14"/>
    </edge>
    <edge id=":1879817626_4" function="internal">
        <lane id=":1879817626_4_0" index="0" disallow="pedestrian tram rail_urban rail rail_electric rail_fast ship" speed="13.89" length="4.00" shape="1504.63,623.43 1502.20,620.25"/>
    </edge>
    <edge id=":1879817626_c0" function="crossing" crossingEdges="177566559#0">
        <lane id=":1879817626_c0_0" index="0" allow="pedestrian" speed="1.00" length="3.20" width="4.00" shape="1504.71,620.75 1502.26,622.81"/>
    </edge>
    <edge id=":1879817626_w0" function="walkingarea">
        <lane id=":1879817626_w0_0" index="0" allow="pedestrian" speed="1.00" length="58.82" width="4.00" shape="1506.00,622.27 1503.42,619.22 1504.07,619.98 1505.60,618.69 1559.73,688.05 1557.48,690.04"/>
    </edge>
    <edge id=":1879817626_w1" function="walkingarea">
        <lane id=":1879817626_w1_0" index="0" allow="pedestrian" speed="1.00" length="3.03" width="4.00" shape="1498.26,622.85 1500.51,620.86 1500.97,621.28 1503.55,624.34"/>
    </edge>
    <edge id=":1879817632_0" function="internal">
        <lane id=":1879817632_0_0" index="0" disallow="pedestrian tram rail_urban rail rail_electric rail_fast ship" speed="13.89" length="8.16" shape="1568.79,707.43 1567.06,705.96 1566.42,704.41 1565.94,702.67 1564.67,700.62"/>
    </edge>
    <edge id=":1879817632_1" function="internal">
        <lane id=":1879817632_1_0" index="0" disallow="pedestrian tram rail_urban rail rail_electric rail_fast ship" speed="13.89" length="7.87" shape="1569.83,706.47 1564.67,700.62"/>
        <lane id=":1879817632_1_1" index="1" disallow="pedestrian tram rail_urban rail rail_electric rail_fast ship" speed="13.89" length="7.87" shape="1567.48,708.65 1562.27,702.74"/>
        <lane id=":1879817632_1_2" index="2" disallow="pedestrian tram rail_urban rail rail_electric rail_fast ship" speed="13.89" length="7.87" shape="1565.13,710.82 1559.87,704.85"/>
    </edge>
    <edge id=":1879817632_c0" function="crossing" crossingEdges="177566558#8">
        <lane id=":1879817632_c0_0" index="0" allow="pedestrian" speed="1.00" length="3.20" width="4.00" shape="1566.26,707.83 1567.84,705.05"/>
    </edge>
    <edge id=":1879817632_w0" function="walkingarea">
        <lane id=":1879817632_w0_0" index="0" allow="pedestrian" speed="1.00" length="5.90" width="4.00" shape="1565.87,699.57 1568.13,697.58 1571.92,703.91 1570.43,706.52 1569.58,706.04 1568.35,705.11 1567.73,704.16 1567.44,703.16 1567.21,702.08 1566.78,700.89"/>
    </edge>
    <edge id=":1879817632_w1" function="walkingarea">
        <lane id=":1879817632_w1_0" index="0" allow="pedestrian" speed="1.00" length="6.79" width="4.00" shape="1564.52,706.84 1568.00,708.82 1573.22,703.37 1570.97,705.35"/>
    </edge>
    <edge id=":1879817671_0" function="internal">
        <lane id=":1879817671_0_0" index="0" disallow="pedestrian tram rail_urban rail rail_electric rail_fast ship" speed="13.89" length="16.20" shape="1780.85,955.35 1776.61,953.08 1773.69,951.42 1771.19,949.30 1768.18,945.62"/>
    </edge>
    <edge id=":1879817671_1" function="internal">
        <lane id=":1879817671_1_0" index="0" disallow="pedestrian tram rail_urban rail rail_electric rail_fast ship" speed="13.89" length="20.98" shape="1779.75,963.34 1768.18,945.62"/>