<?xml version="1.0" encoding="UTF-8"?>
<!-- generated on 2021-12-06 01:41:31.486469 by $Id$ v1_9_2+0000-4206cfae24
  options: 
-->
<routes xmlns:xsi="http://www.w3.org/2001/XMLSchema-instance" xsi:noNamespaceSchemaLocation="http://sumo.dlr.de/xsd/routes_file.xsd">
    <vType id="ped_pedestrian" vClass="pedestrian"/>
    <person id="ped0" depart="0.00" type="ped_pedestrian">
        <walk from="22843276#0" to="-185467797#1"/>
    </person>
    <person id="ped1" depart="7.03" type="ped_pedestrian">
        <walk from="-52664437#1" to="-52514846#1"/>
    </person>
    <person id="ped2" depart="14.05" type="ped_pedestrian">
        <walk from="366913700#4" to="273833832#3"/>
    </person>
    <person id="ped3" depart="21.08" type="ped_pedestrian">
        <walk from="52664437#1" to="-366913700#0"/>
    </person>
    <person id="ped4" depart="28.10" type="ped_pedestrian">
        <walk from="177566523#4" to="-22843125"/>
    </person>
    <person id="ped5" depart="35.13" type="ped_pedestrian">
        <walk from="-52514846#1" to="177566558#5"/>
    </person>
    <person id="ped6" depart="42.15" type="ped_pedestrian">
        <walk from="-22843125" to="-52514845#0"/>
    </person>
    <person id="ped7" depart="49.18" type="ped_pedestrian">
        <walk from="22843276#1" to="177566559#0"/>
    </person>
    <person id="ped8" depart="56.20" type="ped_pedestrian">
        <walk from="-52514846#1" to="185467797#0"/>
    </person>
    <person id="ped9" depart="63.23" type="ped_pedestrian">
        <walk from="52514845#0" to="-104902793"/>
    </person>
    <person id="ped10" depart="70.25" type="ped_pedestrian">
        <walk from="52511313#1" to="366913700#0"/>
    </person>
    <person id="ped11" depart="77.28" type="ped_pedestrian">
        <walk from="-692042225" to="-366913701#5"/>
    </person>
    <person id="ped12" depart="84.30" type="ped_pedestrian">
        <walk from="692042225" to="-672840525"/>
    </person>
    <person id="ped13" depart="91.33" type="ped_pedestrian">
        <walk from="-366913700#1" to="-366913700#2"/>
    </person>
    <person id="ped14" depart="98.35" type="ped_pedestrian">
        <walk from="52663744#0" to="22843125"/>
    </person>
    <person id="ped15" depart="105.38" type="ped_pedestrian">
        <walk from="52511313#1" to="366913700#3"/>
    </person>
    <person id="ped16" depart="112.40" type="ped_pedestrian">
        <walk from="177566558#8" to="699397460"/>
    </person>
    <person id="ped17" depart="119.43" type="ped_pedestrian">
        <walk from="-992408934" to="177566559#2"/>
    </person>
    <person id="ped18" depart="126.45" type="ped_pedestrian">
        <walk from="52514846#0" to="22843127#1"/>
    </person>
    <person id="ped19" depart="133.48" type="ped_pedestrian">
        <walk from="52663744#3" to="177566566"/>
    </person>
    <person id="ped20" depart="140.50" type="ped_pedestrian">
        <walk from="366913700#1" to="-22843127#2"/>
    </person>
    <person id="ped21" depart="147.53" type="ped_pedestrian">
        <walk from="-52663744#1" to="-547023629#1"/>
    </person>
    <person id="ped22" depart="154.55" type="ped_pedestrian">
        <walk from="-366913700#0" to="-52663744#1"/>
    </person>
    <person id="ped23" depart="161.58" type="ped_pedestrian">
        <walk from="-366913700#2" to="-52664437#1"/>
    </person>
    <person id="ped24" depart="168.60" type="ped_pedestrian">
        <walk from="22843276#0" to="-723552318#1"/>
    </person>
    <person id="ped25" depart="175.63" type="ped_pedestrian">
        <walk from="-723552318#2" to="-52514846#0"/>
    </person>
    <person id="ped26" depart="182.65" type="ped_pedestrian">
        <walk from="-52664437#0" to="622415793#0"/>
    </person>
    <person id="ped27" depart="189.68" type="ped_pedestrian">
        <walk from="22843276#1" to="22843127#0"/>
    </person>
    <person id="ped28" depart="196.70" type="ped_pedestrian">
        <walk from="-52511312" to="366913700#3"/>
    </person>
    <person id="ped29" depart="203.73" type="ped_pedestrian">
        <walk from="-366913701#6" to="-992408934"/>
    </person>
    <person id="ped30" depart="210.76" type="ped_pedestrian">
        <walk from="723552318#2" to="22843276#0"/>
    </person>
    <person id="ped31" depart="217.78" type="ped_pedestrian">
        <walk from="177566559#3" to="273833832#4"/>
    </person>
    <person id="ped32" depart="224.81" type="ped_pedestrian">
        <walk from="52514846#1" to="366913701#6"/>
    </person>
    <person id="ped33" depart="231.83" type="ped_pedestrian">
        <walk from="-52663744#1" to="-22843125"/>
    </person>
    <person id="ped34" depart="238.86" type="ped_pedestrian">
        <walk from="-622415793#1" to="-52664437#0"/>
    </person>
    <person id="ped35" depart="245.88" type="ped_pedestrian">
        <walk from="-52514846#0" to="622415793#2"/>
    </person>
    <person id="ped36" depart="252.91" type="ped_pedestrian">
        <walk from="52663746" to="-622415793#1"/>
    </person>
    <person id="ped37" depart="259.93" type="ped_pedestrian">
        <walk from="547023629#2" to="177566556#0"/>
    </person>
    <person id="ped38" depart="266.96" type="ped_pedestrian">
        <walk from="-52664437#0" to="-52663744#3"/>
    </person>
    <person id="ped39" depart="273.98" type="ped_pedestrian">
        <walk from="177566559#3" to="-52664437#0"/>
    </person>
    <person id="ped40" depart="281.01" type="ped_pedestrian">
        <walk from="185467797#0" to="547023629#0"/>
    </person>
    <person id="ped41" depart="288.03" type="ped_pedestrian">
        <walk from="177566523#0" to="-52514846#1"/>
    </person>
    <person id="ped42" depart="295.06" type="ped_pedestrian">
        <walk from="992408934" to="177566558#5"/>
    </person>
    <person id="ped43" depart="302.08" type="ped_pedestrian">
        <walk from="-366913700#1" to="-22843127#2"/>
    </person>
    <person id="ped44" depart="309.11" type="ped_pedestrian">
        <walk from="-366913700#3" to="22843134"/>
    </person>
    <person id="ped45" depart="316.13" type="ped_pedestrian">
        <walk from="52511313#0" to="177566523#4"/>
    </person>
    <person id="ped46" depart="323.16" type="ped_pedestrian">
        <walk from="-22843276#0" to="-992408934"/>
    </person>
    <person id="ped47" depart="330.18" type="ped_pedestrian">
        <walk from="992408934" to="177566558#7"/>
    </person>
    <person id="ped48" depart="337.21" type="ped_pedestrian">
        <walk from="699397460" to="52663744#2"/>
    </person>
    <person id="ped49" depart="344.23" type="ped_pedestrian">
        <walk from="-185467797#0" to="366913700#2"/>
    </person>
    <person id="ped50" depart="351.26" type="ped_pedestrian">
        <walk from="273833832#4" to="177566558#8"/>
    </person>
    <person id="ped51" depart="358.28" type="ped_pedestrian">
        <walk from="-52664437#0" to="22843276#0"/>
    </person>
    <person id="ped52" depart="365.31" type="ped_pedestrian">
        <walk from="-366913700#3" to="177566523#5"/>
    </person>
    <person id="ped53" depart="372.33" type="ped_pedestrian">
        <walk from="177566556#0" to="672840525"/>
    </person>
    <person id="ped54" depart="379.36" type="ped_pedestrian">
        <walk from="52663746" to="-52664437#0"/>
    </person>
    <person id="ped55" depart="386.38" type="ped_pedestrian">
        <walk from="177566558#4" to="-52511313#0"/>
    </person>
    <person id="ped56" depart="393.41" type="ped_pedestrian">
        <walk from="547023629#1" to="52663746"/>
    </person>
    <person id="ped57" depart="400.44" type="ped_pedestrian">
        <walk from="-547023629#2" to="22843276#0"/>
    </person>
    <person id="ped58" depart="407.46" type="ped_pedestrian">
        <walk from="22843127#0" to="-366913701#5"/>
    </person>
    <person id="ped59" depart="414.49" type="ped_pedestrian">
        <walk from="366913701#3" to="177566559#0"/>
    </person>
    <person id="ped60" depart="421.51" type="ped_pedestrian">
        <walk from="366913701#6" to="177566558#7"/>
    </person>
    <person id="ped61" depart="428.54" type="ped_pedestrian">
        <walk from="-104902793" to="-622415793#2"/>
    </person>
    <person id="ped62" depart="435.56" type="ped_pedestrian">
        <walk from="-185467797#1" to="622415769#0"/>
    </person>
    <person id="ped63" depart="442.59" type="ped_pedestrian">
        <walk from="52664437#0" to="52514846#0"/>
    </person>
    <person id="ped64" depart="449.61" type="ped_pedestrian">
        <walk from="-622415769#0" to="-22843134"/>
    </person>
    <person id="ped65" depart="456.64" type="ped_pedestrian">
        <walk from="52663746" to="622415793#2"/>
    </person>
    <person id="ped66" depart="463.66" type="ped_pedestrian">
        <walk from="-366913700#0" to="177566558#1"/>
    </person>
    <person id="ped67" depart="470.69" type="ped_pedestrian">
        <walk from="-22843276#0" to="366913701#3"/>
    </person>
    <person id="ped68" depart="477.71" type="ped_pedestrian">
        <walk from="366913701#4" to="-366913701#0"/>
    </person>
    <person id="ped69" depart="484.74" type="ped_pedestrian">
        <walk from="177566558#0" to="177566559#2"/>
    </person>
    <person id="ped70" depart="491.76" type="ped_pedestrian">
        <walk from="-52664437#0" to="52663746"/>
    </person>
    <person id="ped71" depart="498.79" type="ped_pedestrian">
        <walk from="177566523#4" to="-52514846#0"/>
    </person>
    <person id="ped72" depart="505.81" type="ped_pedestrian">
        <walk from="177566559#0" to="366913700#3"/>
    </person>
    <person id="ped73" depart="512.84" type="ped_pedestrian">
        <walk from="-52514845#1" to="-622415769#0"/>
    </person>
    <person id="ped74" depart="519.86" type="ped_pedestrian">
        <walk from="992408934" to="22843276#1"/>
    </person>
    <person id="ped75" depart="526.89" type="ped_pedestrian">
        <walk from="177566523#6" to="177566558#6"/>
    </person>
    <person id="ped76" depart="533.91" type="ped_pedestrian">
        <walk from="-366913700#4" to="-52514846#1"/>
    </person>
    <person id="ped77" depart="540.94" type="ped_pedestrian">
        <walk from="-672840525" to="185467797#0"/>
    </person>
    <person id="ped78" depart="547.96" type="ped_pedestrian">
        <walk from="-52663744#1" to="-52514846#1"/>
    </person>
    <person id="ped79" depart="554.99" type="ped_pedestrian">
        <walk from="-22843276#1" to="22843134"/>
    </person>
    <person id="ped80" depart="562.01" type="ped_pedestrian">
        <walk from="-52663744#1" to="547023629#1"/>
    </person>
    <person id="ped81" depart="569.04" type="ped_pedestrian">
        <walk from="52663744#2" to="-22843276#1"/>
    </person>
    <person id="ped82" depart="576.06" type="ped_pedestrian">
        <walk from="-52663744#2" to="273833832#2"/>
    </person>
    <person id="ped83" depart="583.09" type="ped_pedestrian">
        <walk from="-52514846#0" to="-366913701#2"/>
    </person>
    <person id="ped84" depart="590.11" type="ped_pedestrian">
        <walk from="622415793#0" to="177566559#4"/>
    </person>
    <person id="ped85" depart="597.14" type="ped_pedestrian">
        <walk from="177566558#0" to="52511312"/>
    </person>
    <person id="ped86" depart="604.17" type="ped_pedestrian">
        <walk from="52511313#1" to="-52511313#1"/>
    </person>
    <person id="ped87" depart="611.19" type="ped_pedestrian">
        <walk from="-366913700#2" to="177566523#5"/>
    </person>
    <person id="ped88" depart="618.22" type="ped_pedestrian">
        <walk from="177566523#4" to="177566556#1"/>
    </person>
    <person id="ped89" depart="625.24" type="ped_pedestrian">
        <walk from="366913700#3" to="273833832#3"/>
    </person>
    <person id="ped90" depart="632.27" type="ped_pedestrian">
        <walk from="723552318#2" to="-366913700#2"/>
    </person>
    <person id="ped91" depart="639.29" type="ped_pedestrian">
        <walk from="177566523#2" to="-692042225"/>
    </person>
    <person id="ped92" depart="646.32" type="ped_pedestrian">
        <walk from="52663744#3" to="-52663744#3"/>
    </person>
    <person id="ped93" depart="653.34" type="ped_pedestrian">
        <walk from="-52511313#1" to="177566523#7"/>
    </person>
    <person id="ped94" depart="660.37" type="ped_pedestrian">
        <walk from="177566523#4" to="-547023629#0"/>
    </person>
    <person id="ped95" depart="667.39" type="ped_pedestrian">
        <walk from="-52663744#3" to="622415769#0"/>
    </person>
    <person id="ped96" depart="674.42" type="ped_pedestrian">
        <walk from="177566523#6" to="52663744#3"/>
    </person>
    <person id="ped97" depart="681.44" type="ped_pedestrian">
        <walk from="177566559#2" to="-22843127#2"/>
    </person>
    <person id="ped98" depart="688.47" type="ped_pedestrian">
        <walk from="992408934" to="52514846#1"/>
    </person>
    <person id="ped99" depart="695.49" type="ped_pedestrian">
        <walk from="699397460" to="622415769#0"/>
    </person>
    <person id="ped100" depart="702.52" type="ped_pedestrian">
        <walk from="52663744#0" to="-52511312"/>
    </person>
    <person id="ped101" depart="709.54" type="ped_pedestrian">
        <walk from="177566558#1" to="-52514846#0"/>
    </person>
    <person id="ped102" depart="716.57" type="ped_pedestrian">
        <walk from="177566523#2" to="-22843134"/>
    </person>
    <person id="ped103" depart="723.59" type="ped_pedestrian">
        <walk from="-992408934" to="723552318#2"/>
    </person>
    <person id="ped104" depart="730.62" type="ped_pedestrian">
        <walk from="-52664437#0" to="52511312"/>
    </person>
    <person id="ped105" depart="737.64" type="ped_pedestrian">
        <walk from="177566556#0" to="177566523#4"/>
    </person>
    <person id="ped106" depart="744.67" type="ped_pedestrian">
        <walk from="692042225" to="992408934"/>
    </person>
    <person id="ped107" depart="751.69" type="ped_pedestrian">
        <walk from="177566559#2" to="366913700#2"/>
    </person>
    <person id="ped108" depart="758.72" type="ped_pedestrian">
        <walk from="-366913701#5" to="-547023629#2"/>
    </person>
    <person id="ped109" depart="765.74" type="ped_pedestrian">
        <walk from="699397460" to="177566566"/>
    </person>
    <person id="ped110" depart="772.77" type="ped_pedestrian">
        <walk from="177566559#0" to="366913701#1"/>
    </person>
    <person id="ped111" depart="779.79" type="ped_pedestrian">
        <walk from="-22843134" to="185467797#0"/>
    </person>
    <person id="ped112" depart="786.82" type="ped_pedestrian">
        <walk from="177566558#4" to="52663744#2"/>
    </person>
    <person id="ped113" depart="793.84" type="ped_pedestrian">
        <walk from="-366913701#6" to="692042225"/>
    </person>
    <person id="ped114" depart="800.87" type="ped_pedestrian">
        <walk from="-366913700#0" to="-52511313#1"/>
    </person>
    <person id="ped115" depart="807.90" type="ped_pedestrian">
        <walk from="185467797#1" to="273833832#3"/>
    </person>
    <person id="ped116" depart="814.92" type="ped_pedestrian">
        <walk from="-52663744#2" to="-366913700#4"/>
    </person>
    <person id="ped117" depart="821.95" type="ped_pedestrian">
        <walk from="52664437#1" to="-52663744#3"/>
    </person>
    <person id="ped118" depart="828.97" type="ped_pedestrian">
        <walk from="185467797#1" to="22843127#1"/>
    </person>
    <person id="ped119" depart="836.00" type="ped_pedestrian">
        <walk from="177566523#4" to="185467797#0"/>
    </person>
    <person id="ped120" depart="843.02" type="ped_pedestrian">
        <walk from="177566558#7" to="622415793#0"/>
    </person>
    <person id="ped121" depart="850.05" type="ped_pedestrian">
        <walk from="-52514845#1" to="366913700#2"/>
    </person>
    <person id="ped122" depart="857.07" type="ped_pedestrian">
        <walk from="-52663744#2" to="177566523#0"/>
    </person>
    <person id="ped123" depart="864.10" type="ped_pedestrian">
        <walk from="273833832#3" to="-547023629#2"/>
    </person>
    <person id="ped124" depart="871.12" type="ped_pedestrian">
        <walk from="-622415793#1" to="366913701#1"/>
    </person>
    <person id="ped125" depart="878.15" type="ped_pedestrian">
        <walk from="-22843276#1" to="177566556#0"/>
    </person>
    <person id="ped126" depart="885.17" type="ped_pedestrian">
        <walk from="992408934" to="992408934"/>
    </person>
    <person id="ped127" depart="892.20" type="ped_pedestrian">
        <walk from="-22843276#1" to="-52514846#0"/>
    </person>
    <person id="ped128" depart="899.22" type="ped_pedestrian">
        <walk from="-52664437#0" to="622415793#0"/>
    </person>
    <person id="ped129" depart="906.25" type="ped_pedestrian">
        <walk from="52664437#0" to="52664437#0"/>
    </person>
    <person id="ped130" depart="913.27" type="ped_pedestrian">
        <walk from="-723552318#2" to="-366913701#6"/>
    </person>
    <person id="ped131" depart="920.30" type="ped_pedestrian">
        <walk from="52514846#0" to="366913700#0"/>
    </person>
    <person id="ped132" depart="927.32" type="ped_pedestrian">
        <walk from="22843127#0" to="723552318#2"/>
    </person>
    <person id="ped133" depart="934.35" type="ped_pedestrian">
        <walk from="273833832#0" to="-104902793"/>
    </person>
    <person id="ped134" depart="941.37" type="ped_pedestrian">
        <walk from="52514845#0" to="-547023629#2"/>
    </person>
    <person id="ped135" depart="948.40" type="ped_pedestrian">
        <walk from="273833832#2" to="622415793#0"/>
    </person>
    <person id="ped136" depart="955.42" type="ped_pedestrian">
        <walk from="-366913701#2" to="-366913700#4"/>
    </person>
    <person id="ped137" depart="962.45" type="ped_pedestrian">
        <walk from="-366913700#3" to="177566559#2"/>
    </person>
    <person id="ped138" depart="969.47" type="ped_pedestrian">
        <walk from="-52664437#1" to="22843125"/>
    </person>
    <person id="ped139" depart="976.50" type="ped_pedestrian">
        <walk from="366913700#2" to="-52514845#1"/>
    </person>
    <person id="ped140" depart="983.52" type="ped_pedestrian">
        <walk from="22843134" to="-52664437#0"/>
    </person>
    <person id="ped141" depart="990.55" type="ped_pedestrian">
        <walk from="177566558#3" to="547023629#1"/>
    </person>
    <person id="ped142" depart="997.57" type="ped_pedestrian">
        <walk from="52663744#0" to="-366913700#1"/>
    </person>
    <person id="ped143" depart="1004.60" type="ped_pedestrian">
        <walk from="177566523#4" to="-52664437#1"/>
    </person>
    <person id="ped144" depart="1011.63" type="ped_pedestrian">
        <walk from="-104902793" to="366913701#4"/>
    </person>
    <person id="ped145" depart="1018.65" type="ped_pedestrian">
        <walk from="22843276#0" to="-52664437#0"/>
    </person>
    <person id="ped146" depart="1025.68" type="ped_pedestrian">
        <walk from="366913701#0" to="177566559#2"/>
    </person>
    <person id="ped147" depart="1032.70" type="ped_pedestrian">
        <walk from="177566523#5" to="-185467797#0"/>
    </person>
    <person id="ped148" depart="1039.73" type="ped_pedestrian">
        <walk from="-22843276#1" to="52664437#0"/>
    </person>
    <person id="ped149" depart="1046.75" type="ped_pedestrian">
        <walk from="547023629#0" to="177566559#0"/>
    </person>
    <person id="ped150" depart="1053.78" type="ped_pedestrian">
        <walk from="52514846#0" to="177566566"/>
    </person>
    <person id="ped151" depart="1060.80" type="ped_pedestrian">
        <walk from="-366913701#5" to="-366913701#0"/>
    </person>
    <person id="ped152" depart="1067.83" type="ped_pedestrian">
        <walk from="-622415769#0" to="547023629#0"/>
    </person>
    <person id="ped153" depart="1074.85" type="ped_pedestrian">
        <walk from="52511313#0" to="52663744#2"/>
    </person>
    <person id="ped154" depart="1081.88" type="ped_pedestrian">
        <walk from="547023629#0" to="-52514846#0"/>
    </person>
    <person id="ped155" depart="1088.90" type="ped_pedestrian">
        <walk from="-52663744#3" to="-366913700#2"/>
    </person>
    <person id="ped156" depart="1095.93" type="ped_pedestrian">
        <walk from="366913701#6" to="52664437#0"/>
    </person>
    <person id="ped157" depart="1102.95" type="ped_pedestrian">
        <walk from="177566523#2" to="22843127#1"/>
    </person>
    <person id="ped158" depart="1109.98" type="ped_pedestrian">
        <walk from="-366913701#5" to="622415769#0"/>
    </person>
    <person id="ped159" depart="1117.00" type="ped_pedestrian">
        <walk from="52663744#3" to="723552318#0"/>
    </person>
    <person id="ped160" depart="1124.03" type="ped_pedestrian">
        <walk from="52514845#0" to="52664437#0"/>
    </person>
    <person id="ped161" depart="1131.05" type="ped_pedestrian">
        <walk from="-185467797#1" to="366913700#4"/>
    </person>
    <person id="ped162" depart="1138.08" type="ped_pedestrian">
        <walk from="-672840525" to="622415793#0"/>
    </person>
    <person id="ped163" depart="1145.10" type="ped_pedestrian">
        <walk from="52511313#1" to="52663744#3"/>
    </person>
    <person id="ped164" depart="1152.13" type="ped_pedestrian">
        <walk from="52514845#0" to="-52664437#0"/>
    </person>
    <person id="ped165" depart="1159.15" type="ped_pedestrian">
        <walk from="52511312" to="-366913700#3"/>
    </person>
    <person id="ped166" depart="1166.18" type="ped_pedestrian">
        <walk from="52663746" to="52663744#2"/>
    </person>
    <person id="ped167" depart="1173.20" type="ped_pedestrian">
        <walk from="-52514846#1" to="52514845#0"/>
    </person>
    <person id="ped168" depart="1180.23" type="ped_pedestrian">
        <walk from="177566556#0" to="-622415769#0"/>
    </person>
    <person id="ped169" depart="1187.25" type="ped_pedestrian">
        <walk from="52511313#0" to="-52663744#1"/>
    </person>
    <person id="ped170" depart="1194.28" type="ped_pedestrian">
        <walk from="-185467797#1" to="-52514845#0"/>
    </person>
    <person id="ped171" depart="1201.31" type="ped_pedestrian">
        <walk from="-622415793#2" to="52663744#3"/>
    </person>
    <person id="ped172" depart="1208.33" type="ped_pedestrian">
        <walk from="699397460" to="-547023629#0"/>
    </person>
    <person id="ped173" depart="1215.36" type="ped_pedestrian">
        <walk from="22843276#0" to="177566523#0"/>
    </person>
    <person id="ped174" depart="1222.38" type="ped_pedestrian">
        <walk from="723552318#0" to="177566558#8"/>
    </person>
    <person id="ped175" depart="1229.41" type="ped_pedestrian">
        <walk from="622415793#2" to="-366913700#4"/>
    </person>
    <person id="ped176" depart="1236.43" type="ped_pedestrian">
        <walk from="699397460" to="-52511313#0"/>
    </person>
    <person id="ped177" depart="1243.46" type="ped_pedestrian">
        <walk from="692042225" to="-52664437#0"/>
    </person>
    <person id="ped178" depart="1250.48" type="ped_pedestrian">
        <walk from="-366913700#3" to="177566523#5"/>
    </person>
    <person id="ped179" depart="1257.51" type="ped_pedestrian">
        <walk from="366913700#3" to="-622415793#1"/>
    </person>
    <person id="ped180" depart="1264.53" type="ped_pedestrian">
        <walk from="22843125" to="177566558#5"/>
    </person>
    <person id="ped181" depart="1271.56" type="ped_pedestrian">
        <walk from="104902793" to="177566566"/>
    </person>
    <person id="ped182" depart="1278.58" type="ped_pedestrian">
        <walk from="-52663746" to="366913700#1"/>
    </person>
    <person id="ped183" depart="1285.61" type="ped_pedestrian">
        <walk from="-104902793" to="622415769#0"/>
    </person>
    <person id="ped184" depart="1292.63" type="ped_pedestrian">
        <walk from="177566558#8" to="366913700#2"/>
    </person>
    <person id="ped185" depart="1299.66" type="ped_pedestrian">
        <walk from="366913701#0" to="273833832#3"/>
    </person>
    <person id="ped186" depart="1306.68" type="ped_pedestrian">
        <walk from="-723552318#1" to="-22843276#1"/>
    </person>
    <person id="ped187" depart="1313.71" type="ped_pedestrian">
        <walk from="273833832#2" to="-622415793#2"/>
    </person>
    <person id="ped188" depart="1320.73" type="ped_pedestrian">
        <walk from="-622415793#1" to="52663744#0"/>
    </person>
    <person id="ped189" depart="1327.76" type="ped_pedestrian">
        <walk from="366913700#2" to="-547023629#2"/>
    </person>
    <person id="ped190" depart="1334.78" type="ped_pedestrian">
        <walk from="-622415769#0" to="177566523#2"/>
    </person>
    <person id="ped191" depart="1341.81" type="ped_pedestrian">
        <walk from="177566523#2" to="-547023629#2"/>
    </person>
    <person id="ped192" depart="1348.83" type="ped_pedestrian">
        <walk from="-366913701#0" to="177566523#4"/>
    </person>
    <person id="ped193" depart="1355.86" type="ped_pedestrian">
        <walk from="622415793#2" to="273833832#3"/>
    </person>
    <person id="ped194" depart="1362.88" type="ped_pedestrian">
        <walk from="547023629#0" to="22843127#0"/>
    </person>
    <person id="ped195" depart="1369.91" type="ped_pedestrian">
        <walk from="-547023629#2" to="177566559#2"/>
    </person>
    <person id="ped196" depart="1376.93" type="ped_pedestrian">
        <walk from="-104902793" to="-547023629#0"/>
    </person>
    <person id="ped197" depart="1383.96" type="ped_pedestrian">
        <walk from="177566523#5" to="177566566"/>
    </person>
    <person id="ped198" depart="1390.98" type="ped_pedestrian">
        <walk from="177566523#6" to="-52514846#0"/>
    </person>
    <person id="ped199" depart="1398.01" type="ped_pedestrian">
        <walk from="177566558#0" to="547023629#0"/>
    </person>
    <person id="ped200" depart="1405.04" type="ped_pedestrian">
        <walk from="52511313#0" to="-52511312"/>
    </person>
    <person id="ped201" depart="1412.06" type="ped_pedestrian">
        <walk from="-366913700#0" to="177566558#6"/>
    </person>
    <person id="ped202" depart="1419.09" type="ped_pedestrian">
        <walk from="22843134" to="-672840525"/>
    </person>
    <person id="ped203" depart="1426.11" type="ped_pedestrian">
        <walk from="52514845#1" to="366913701#1"/>
    </person>
    <person id="ped204" depart="1433.14" type="ped_pedestrian">
        <walk from="273833832#3" to="-52514846#1"/>
    </person>
    <person id="ped205" depart="1440.16" type="ped_pedestrian">
        <walk from="-52514845#0" to="-185467797#1"/>
    </person>
    <person id="ped206" depart="1447.19" type="ped_pedestrian">
        <walk from="-52663744#3" to="177566558#0"/>
    </person>
    <person id="ped207" depart="1454.21" type="ped_pedestrian">
        <walk from="52663744#0" to="-22843276#1"/>
    </person>
    <person id="ped208" depart="1461.24" type="ped_pedestrian">
        <walk from="177566523#3" to="22843134"/>
    </person>
    <person id="ped209" depart="1468.26" type="ped_pedestrian">
        <walk from="-52514845#0" to="366913700#0"/>
    </person>
    <person id="ped210" depart="1475.29" type="ped_pedestrian">
        <walk from="177566558#3" to="-52663744#3"/>
    </person>
    <person id="ped211" depart="1482.31" type="ped_pedestrian">
        <walk from="273833832#0" to="-104902793"/>
    </person>
    <person id="ped212" depart="1489.34" type="ped_pedestrian">
        <walk from="366913701#1" to="366913701#4"/>
    </person>
    <person id="ped213" depart="1496.36" type="ped_pedestrian">
        <walk from="-366913700#3" to="177566523#4"/>
    </person>
    <person id="ped214" depart="1503.39" type="ped_pedestrian">
        <walk from="-52511313#0" to="692042225"/>
    </person>
    <person id="ped215" depart="1510.41" type="ped_pedestrian">
        <walk from="177566558#6" to="-22843127#2"/>
    </person>
    <person id="ped216" depart="1517.44" type="ped_pedestrian">
        <walk from="-52663744#3" to="52663744#0"/>
    </person>
    <person id="ped217" depart="1524.46" type="ped_pedestrian">
        <walk from="177566556#0" to="52511313#1"/>
    </person>
    <person id="ped218" depart="1531.49" type="ped_pedestrian">
        <walk from="273833832#2" to="723552318#2"/>
    </person>
    <person id="ped219" depart="1538.51" type="ped_pedestrian">
        <walk from="185467797#1" to="672840525"/>
    </person>
    <person id="ped220" depart="1545.54" type="ped_pedestrian">
        <walk from="52664437#1" to="22843127#0"/>
    </person>
    <person id="ped221" depart="1552.56" type="ped_pedestrian">
        <walk from="366913700#2" to="177566558#5"/>
    </person>
    <person id="ped222" depart="1559.59" type="ped_pedestrian">
        <walk from="52514846#0" to="177566559#2"/>
    </person>
    <person id="ped223" depart="1566.61" type="ped_pedestrian">
        <walk from="547023629#0" to="366913701#0"/>
    </person>
    <person id="ped224" depart="1573.64" type="ped_pedestrian">
        <walk from="177566558#0" to="-52663746"/>
    </person>
    <person id="ped225" depart="1580.66" type="ped_pedestrian">
        <walk from="-52663744#3" to="22843276#0"/>
    </person>
    <person id="ped226" depart="1587.69" type="ped_pedestrian">
        <walk from="366913701#4" to="177566558#6"/>
    </person>
    <person id="ped227" depart="1594.71" type="ped_pedestrian">
        <walk from="22843134" to="-52664437#1"/>
    </person>
    <person id="ped228" depart="1601.74" type="ped_pedestrian">
        <walk from="-22843276#1" to="-547023629#0"/>
    </person>
    <person id="ped229" depart="1608.77" type="ped_pedestrian">
        <walk from="-52664437#1" to="-622415793#1"/>
    </person>
    <person id="ped230" depart="1615.79" type="ped_pedestrian">
        <walk from="177566559#0" to="-366913701#2"/>
    </person>