<?xml version="1.0" encoding="UTF-8"?>

<!-- generated on 2021-12-06 01:41:31 by Eclipse SUMO duarouter Version 1.9.2
<configuration xmlns:xsi="http://www.w3.org/2001/XMLSchema-instance" xsi:noNamespaceSchemaLocation="http://sumo.dlr.de/xsd/duarouterConfiguration.xsd">

    <input>
        <net-file value="C:\Users\saurabh\Sumo\2021-12-06-01-41-26\osm.net.xml"/>
        <route-files value="C:\Users\saurabh\Sumo\2021-12-06-01-41-26\osm.pedestrian.trips.xml"/>
    </input>

    <output>
        <output-file value="C:\Users\saurabh\Sumo\2021-12-06-01-41-26\osm.pedestrian.rou.xml"/>
        <alternatives-output value="C:\Users\saurabh\Sumo\2021-12-06-01-41-26\osm.pedestrian.rou.alt.xml"/>
    </output>

    <time>
        <begin value="0"/>
        <end value="3600"/>
    </time>

    <report>
        <no-warnings value="true"/>
        <ignore-errors value="true"/>
        <no-step-log value="true"/>
    </report>

</configuration>
-->

<routes xmlns:xsi="http://www.w3.org/2001/XMLSchema-instance" xsi:noNamespaceSchemaLocation="http://sumo.dlr.de/xsd/routes_file.xsd">
    <vType id="ped_pedestrian" vClass="pedestrian"/>
    <person id="ped0" type="ped_pedestrian" depart="0.00">
        <walk edges="22843276#0 -366913700#0 177566559#2 177566559#3 -185467797#1"/>
    </person>
    <person id="ped1" type="ped_pedestrian" depart="7.03">
        <walk edges="-52664437#1 -52664437#0 366913701#4 366913701#3 366913701#1 366913701#0 22843276#1 22843276#0 -366913700#0 177566559#2 52514845#0 -52514846#0 -52514846#1"/>
    </person>
    <person id="ped2" type="ped_pedestrian" depart="14.05">
        <walk edges="366913700#4 366913700#3 366913700#2 366913700#1 366913700#0 622415793#2 273833832#3"/>
    </person>
    <person id="ped3" type="ped_pedestrian" depart="21.08">
        <walk edges="52664437#1 52664437#0 366913701#4 366913701#3 366913701#1 366913701#0 22843276#1 22843276#0 -366913700#0"/>
    </person>
    <person id="ped4" type="ped_pedestrian" depart="28.10">
        <walk edges="177566523#4 177566523#3 177566566 177566558#1 -22843125"/>
    </person>
    <person id="ped5" type="ped_pedestrian" depart="35.13">
        <walk edges="-52514846#1 185467797#0 -22843127#0 22843127#1 177566558#5"/>
    </person>
    <person id="ped6" type="ped_pedestrian" depart="42.15">
        <walk edges="-22843125 177566558#1 177566558#3 177566558#4 177566558#5 -22843134 -52514845#1 -52514845#0"/>
    </person>
    <person id="ped7" type="ped_pedestrian" depart="49.18">
        <walk edges="22843276#1 22843276#0 -366913700#0 177566559#0"/>
    </person>
    <person id="ped8" type="ped_pedestrian" depart="56.20">
        <walk edges="-52514846#1 185467797#0"/>
    </person>
    <person id="ped9" type="ped_pedestrian" depart="63.23">
        <walk edges="52514845#0 177566559#2 177566559#0 177566523#5 177566558#8 -104902793"/>
    </person>
    <person id="ped10" type="ped_pedestrian" depart="70.25">
        <walk edges="52511313#1 -547023629#2 -547023629#1 -547023629#0 177566523#2 177566523#3 177566523#4 177566523#5 177566523#6 366913700#0"/>
    </person>
    <person id="ped11" type="ped_pedestrian" depart="77.28">
        <walk edges="-692042225 -52663744#3 52664437#0 -366913701#5"/>
    </person>
    <person id="ped12" type="ped_pedestrian" depart="84.30">
        <walk edges="692042225 -52663744#2 52511312 -366913701#3 622415793#0 273833832#3 -672840525"/>
    </person>
    <person id="ped13" type="ped_pedestrian" depart="91.33">
        <walk edges="-366913700#1 -366913700#2"/>
    </person>
    <person id="ped14" type="ped_pedestrian" depart="98.35">
        <walk edges="52663744#0 -52663744#1 -52511312 366913701#3 366913701#1 366913701#0 22843276#1 22843276#0 177566523#6 177566523#5 177566558#8 177566558#7 177566558#6 177566558#5 177566558#4 177566558#3 177566558#1 22843125"/>
    </person>
    <person id="ped15" type="ped_pedestrian" depart="105.38">
        <walk edges="52511313#1 -547023629#2 -547023629#1 -547023629#0 177566523#2 177566566 177566558#3 177566558#4 177566558#5 177566558#6 699397460 366913700#3"/>
    </person>
    <person id="ped16" type="ped_pedestrian" depart="112.40">
        <walk edges="177566558#8 177566558#7 699397460"/>
    </person>
    <person id="ped17" type="ped_pedestrian" depart="119.43">
        <walk edges="-992408934 -22843127#0 -366913700#4 -366913700#3 -366913700#2 -366913700#1 177566559#2"/>
    </person>
    <person id="ped18" type="ped_pedestrian" depart="126.45">
        <walk edges="52514846#0 -52514845#1 366913700#4 22843127#0 22843127#1"/>
    </person>
    <person id="ped19" type="ped_pedestrian" depart="133.48">
        <walk edges="52663744#3 -52663744#2 52511312 -366913701#3 622415793#0 273833832#3 672840525 177566523#3 177566566"/>
    </person>
    <person id="ped20" type="ped_pedestrian" depart="140.50">
        <walk edges="366913700#1 177566559#0 177566523#5 177566558#8 177566558#7 177566558#6 177566558#5 -22843127#2"/>
    </person>
    <person id="ped21" type="ped_pedestrian" depart="147.53">
        <walk edges="-52663744#1 -52511312 -366913701#3 622415793#0 273833832#3 273833832#4 -547023629#1"/>
    </person>
    <person id="ped22" type="ped_pedestrian" depart="154.55">
        <walk edges="-366913700#0 22843276#0 22843276#1 366913701#0 366913701#1 366913701#3 -52511312 -52663744#1"/>
    </person>
    <person id="ped23" type="ped_pedestrian" depart="161.58">
        <walk edges="-366913700#2 -366913700#1 -366913700#0 22843276#0 22843276#1 366913701#0 366913701#1 366913701#3 366913701#4 -52664437#0 -52664437#1"/>
    </person>
    <person id="ped24" type="ped_pedestrian" depart="168.60">
        <walk edges="22843276#0 -366913700#0 -366913700#1 -366913700#2 366913700#3 366913700#4 22843127#0 992408934 -723552318#1"/>
    </person>
    <person id="ped25" type="ped_pedestrian" depart="175.63">
        <walk edges="-723552318#2 -992408934 -22843127#0 -185467797#0 -52514846#0"/>
    </person>
    <person id="ped26" type="ped_pedestrian" depart="182.65">
        <walk edges="-52664437#0 -366913701#5 -366913701#3 622415793#0"/>
    </person>
    <person id="ped27" type="ped_pedestrian" depart="189.68">
        <walk edges="22843276#1 22843276#0 -366913700#0 -366913700#1 -366913700#2 366913700#3 366913700#4 22843127#0"/>
    </person>
    <person id="ped28" type="ped_pedestrian" depart="196.70">
        <walk edges="-52511312 366913701#3 366913701#1 366913701#0 22843276#1 22843276#0 -366913700#0 -366913700#1 -366913700#2 366913700#3"/>
    </person>
    <person id="ped29" type="ped_pedestrian" depart="203.73">
        <walk edges="-366913701#6 -366913701#5 366913701#3 366913701#1 366913701#0 22843276#1 22843276#0 -366913700#0 -366913700#1 -366913700#2 -366913700#3 -366913700#4 -22843127#0 -992408934"/>
    </person>
    <person id="ped30" type="ped_pedestrian" depart="210.76">
        <walk edges="723552318#2 -992408934 -22843127#0 -366913700#4 -366913700#3 -366913700#2 -366913700#1 -366913700#0 22843276#0"/>
    </person>
    <person id="ped31" type="ped_pedestrian" depart="217.78">
        <walk edges="177566559#3 177566559#2 177566559#0 177566523#5 177566523#4 -672840525 273833832#4"/>
    </person>
    <person id="ped32" type="ped_pedestrian" depart="224.81">
        <walk edges="52514846#1 52514846#0 52514845#0 177566559#2 -366913700#0 22843276#0 22843276#1 366913701#0 366913701#1 366913701#3 366913701#4 366913701#6"/>
    </person>
    <person id="ped33" type="ped_pedestrian" depart="231.83">
        <walk edges="-52663744#1 -52511312 366913701#3 366913701#1 366913701#0 22843276#1 22843276#0 177566523#6 177566523#5 177566558#8 177566558#7 177566558#6 177566558#5 177566558#4 177566558#3 177566558#1 -22843125"/>
    </person>
    <person id="ped34" type="ped_pedestrian" depart="238.86">
        <walk edges="-622415793#1 -366913701#3 -366913701#5 -52664437#0"/>
    </person>
    <person id="ped35" type="ped_pedestrian" depart="245.88">
        <walk edges="-52514846#0 52514845#0 177566559#2 -366913700#0 622415793#2"/>
    </person>
    <person id="ped36" type="ped_pedestrian" depart="252.91">
        <walk edges="52663746 -366913701#0 -22843276#1 273833832#2 -622415793#1"/>
    </person>
    <person id="ped37" type="ped_pedestrian" depart="259.93">
        <walk edges="547023629#2 177566556#0"/>
    </person>
    <person id="ped38" type="ped_pedestrian" depart="266.96">
        <walk edges="-52664437#0 -52663744#3"/>
    </person>
    <person id="ped39" type="ped_pedestrian" depart="273.98">
        <walk edges="177566559#3 177566559#2 -366913700#0 22843276#0 22843276#1 366913701#0 366913701#1 366913701#3 366913701#4 -52664437#0"/>
    </person>
    <person id="ped40" type="ped_pedestrian" depart="281.01">
        <walk edges="185467797#0 -22843127#0 -22843127#2 177566558#4 177566558#3 177566566 177566523#2 547023629#0"/>
    </person>
    <person id="ped41" type="ped_pedestrian" depart="288.03">
        <walk edges="177566523#0 177566523#2 177566566 177566558#3 177566558#4 -22843127#2 -22843127#0 185467797#0 -52514846#1"/>
    </person>
    <person id="ped42" type="ped_pedestrian" depart="295.06">
        <walk edges="992408934 -22843127#2 177566558#5"/>
    </person>
    <person id="ped43" type="ped_pedestrian" depart="302.08">
        <walk edges="-366913700#1 -104902793 177566558#7 177566558#6 177566558#5 -22843127#2"/>
    </person>
    <person id="ped44" type="ped_pedestrian" depart="309.11">
        <walk edges="-366913700#3 22843134"/>
    </person>
    <person id="ped45" type="ped_pedestrian" depart="316.13">
        <walk edges="52511313#0 -622415769#0 547023629#2 177566556#0 672840525 177566523#4"/>
    </person>
    <person id="ped46" type="ped_pedestrian" depart="323.16">
        <walk edges="-22843276#0 -366913700#0 -366913700#1 -366913700#2 -366913700#3 -366913700#4 -22843127#0 -992408934"/>
    </person>
    <person id="ped47" type="ped_pedestrian" depart="330.18">
        <walk edges="992408934 22843127#0 366913700#4 366913700#3 -699397460 177566558#7"/>
    </person>
    <person id="ped48" type="ped_pedestrian" depart="337.21">
        <walk edges="699397460 177566558#7 177566558#8 177566523#5 177566523#6 22843276#0 22843276#1 366913701#0 366913701#1 366913701#3 -52511312 52663744#2"/>
    </person>
    <person id="ped49" type="ped_pedestrian" depart="344.23">
        <walk edges="-185467797#0 52514846#0 52514845#1 -366913700#3 366913700#2"/>
    </person>
    <person id="ped50" type="ped_pedestrian" depart="351.26">
        <walk edges="273833832#4 -672840525 177566523#4 177566558#8"/>
    </person>
    <person id="ped51" type="ped_pedestrian" depart="358.28">
        <walk edges="-52664437#0 366913701#4 366913701#3 366913701#1 366913701#0 22843276#1 22843276#0"/>
    </person>
    <person id="ped52" type="ped_pedestrian" depart="365.31">
        <walk edges="-366913700#3 -366913700#2 104902793 177566558#8 177566523#5"/>
    </person>
    <person id="ped53" type="ped_pedestrian" depart="372.33">
        <walk edges="177566556#0 672840525"/>
    </person>
    <person id="ped54" type="ped_pedestrian" depart="379.36">
        <walk edges="52663746 -366913701#2 -366913701#3 -366913701#5 -52664437#0"/>
    </person>
    <person id="ped55" type="ped_pedestrian" depart="386.38">
        <walk edges="177566558#4 177566558#3 177566566 177566523#2 547023629#0 547023629#1 547023629#2 -52511313#0"/>
    </person>
    <person id="ped56" type="ped_pedestrian" depart="393.41">
        <walk edges="547023629#1 273833832#4 273833832#3 273833832#2 -22843276#1 -366913701#0 52663746"/>
    </person>
    <person id="ped57" type="ped_pedestrian" depart="400.44">
        <walk edges="-547023629#2 177566556#0 273833832#3 -622415793#2 22843276#0"/>
    </person>
    <person id="ped58" type="ped_pedestrian" depart="407.46">
        <walk edges="22843127#0 366913700#4 366913700#3 -366913700#2 -366913700#1 -366913700#0 22843276#0 22843276#1 366913701#0 366913701#1 366913701#3 -366913701#5"/>
    </person>
    <person id="ped59" type="ped_pedestrian" depart="414.49">
        <walk edges="366913701#3 366913701#1 366913701#0 22843276#1 22843276#0 -366913700#0 177566559#0"/>
    </person>
    <person id="ped60" type="ped_pedestrian" depart="421.51">
        <walk edges="366913701#6 -366913701#5 -366913701#3 622415793#0 622415793#2 177566523#6 177566523#5 177566558#8 177566558#7"/>
    </person>
    <person id="ped61" type="ped_pedestrian" depart="428.54">
        <walk edges="-104902793 177566558#8 177566523#5 177566523#6 -622415793#2"/>
    </person>
    <person id="ped62" type="ped_pedestrian" depart="435.56">
        <walk edges="-185467797#1 177566559#3 177566559#2 177566559#0 177566523#5 177566523#4 672840525 177566556#0 547023629#2 622415769#0"/>
    </person>
    <person id="ped63" type="ped_pedestrian" depart="442.59">
        <walk edges="52664437#0 366913701#4 366913701#3 366913701#1 366913701#0 22843276#1 22843276#0 -366913700#0 177566559#2 52514845#0 52514846#0"/>
    </person>
    <person id="ped64" type="ped_pedestrian" depart="449.61">
        <walk edges="-622415769#0 547023629#2 547023629#1 547023629#0 177566523#2 177566566 177566558#3 177566558#4 177566558#5 -22843134"/>
    </person>
    <person id="ped65" type="ped_pedestrian" depart="456.64">
        <walk edges="52663746 -366913701#0 -22843276#1 -22843276#0 622415793#2"/>
    </person>
    <person id="ped66" type="ped_pedestrian" depart="463.66">
        <walk edges="-366913700#0 177566523#6 177566523#5 177566558#8 177566558#7 177566558#6 177566558#5 177566558#4 177566558#3 177566558#1"/>
    </person>
    <person id="ped67" type="ped_pedestrian" depart="470.69">
        <walk edges="-22843276#0 -22843276#1 366913701#0 366913701#1 366913701#3"/>
    </person>
    <person id="ped68" type="ped_pedestrian" depart="477.71">
        <walk edges="366913701#4 366913701#3 366913701#1 -366913701#0"/>
    </person>
    <person id="ped69" type="ped_pedestrian" depart="484.74">
        <walk edges="177566558#0 177566558#1 177566558#3 177566558#4 177566558#5 177566558#6 177566558#7 177566558#8 177566523#5 177566559#0 177566559#2"/>
    </person>
    <person id="ped70" type="ped_pedestrian" depart="491.76">
        <walk edges="-52664437#0 -366913701#5 -366913701#3 -366913701#2 52663746"/>
    </person>
    <person id="ped71" type="ped_pedestrian" depart="498.79">
        <walk edges="177566523#4 177566523#3 177566566 177566558#3 177566558#4 22843127#1 22843127#0 -185467797#0 -52514846#0"/>
    </person>
    <person id="ped72" type="ped_pedestrian" depart="505.81">
        <walk edges="177566559#0 366913700#1 366913700#2 366913700#3"/>
    </person>
    <person id="ped73" type="ped_pedestrian" depart="512.84">
        <walk edges="-52514845#1 -22843134 177566558#5 177566558#4 177566558#3 177566566 177566523#2 547023629#0 547023629#1 547023629#2 -622415769#0"/>
    </person>
    <person id="ped74" type="ped_pedestrian" depart="519.86">
        <walk edges="992408934 22843127#0 366913700#4 366913700#3 -366913700#2 -366913700#1 -366913700#0 22843276#0 22843276#1"/>
    </person>
    <person id="ped75" type="ped_pedestrian" depart="526.89">
        <walk edges="177566523#6 177566523#5 177566558#8 177566558#7 177566558#6"/>
    </person>
    <person id="ped76" type="ped_pedestrian" depart="533.91">
        <walk edges="-366913700#4 -185467797#0 -52514846#1"/>
    </person>
    <person id="ped77" type="ped_pedestrian" depart="540.94">
        <walk edges="-672840525 177566523#3 177566566 177566558#3 177566558#4 -22843127#2 -22843127#0 185467797#0"/>
    </person>
    <person id="ped78" type="ped_pedestrian" depart="547.96">
        <walk edges="-52663744#1 -52511312 366913701#3 366913701#1 366913701#0 22843276#1 22843276#0 -366913700#0 177566559#2 52514845#0 -52514846#0 -52514846#1"/>
    </person>
    <person id="ped79" type="ped_pedestrian" depart="554.99">
        <walk edges="-22843276#1 -22843276#0 -366913700#0 -366913700#1 -366913700#2 366913700#3 22843134"/>
    </person>
    <person id="ped80" type="ped_pedestrian" depart="562.01">
        <walk edges="-52663744#1 -52511312 -366913701#3 622415793#0 273833832#3 273833832#4 547023629#1"/>
    </person>
    <person id="ped81" type="ped_pedestrian" depart="569.04">
        <walk edges="52663744#2 -52511312 366913701#3 366913701#1 366913701#0 -22843276#1"/>
    </person>
    <person id="ped82" type="ped_pedestrian" depart="576.06">
        <walk edges="-52663744#2 52511312 366913701#3 366913701#1 366913701#0 -22843276#1 273833832#2"/>
    </person>
    <person id="ped83" type="ped_pedestrian" depart="583.09">
        <walk edges="-52514846#0 52514845#0 177566559#2 -366913700#0 22843276#0 22843276#1 366913701#0 -366913701#2"/>
    </person>
    <person id="ped84" type="ped_pedestrian" depart="590.11">
        <walk edges="622415793#0 -622415793#2 -366913700#0 177566559#2 177566559#3 177566559#4"/>
    </person>
    <person id="ped85" type="ped_pedestrian" depart="597.14">
        <walk edges="177566558#0 177566558#1 177566566 177566523#3 672840525 273833832#3 622415793#0 -366913701#3 52511312"/>
    </person>
    <person id="ped86" type="ped_pedestrian" depart="604.17">
        <walk edges="52511313#1 -52511313#1"/>
    </person>
    <person id="ped87" type="ped_pedestrian" depart="611.19">
        <walk edges="-366913700#2 104902793 177566558#8 177566523#5"/>
    </person>
    <person id="ped88" type="ped_pedestrian" depart="618.22">
        <walk edges="177566523#4 177566523#3 177566523#2 -547023629#0 -547023629#1 177566556#1"/>
    </person>
    <person id="ped89" type="ped_pedestrian" depart="625.24">
        <walk edges="366913700#3 366913700#2 366913700#1 366913700#0 622415793#2 273833832#3"/>
    </person>
    <person id="ped90" type="ped_pedestrian" depart="632.27">
        <walk edges="723552318#2 -992408934 -22843127#0 -366913700#4 -366913700#3 -366913700#2"/>
    </person>
    <person id="ped91" type="ped_pedestrian" depart="639.29">
        <walk edges="177566523#2 177566523#3 672840525 273833832#3 622415793#0 -366913701#3 52511312 -52663744#2 -692042225"/>
    </person>
    <person id="ped92" type="ped_pedestrian" depart="646.32">
        <walk edges="52663744#3 -52663744#3"/>
    </person>
    <person id="ped93" type="ped_pedestrian" depart="653.34">
        <walk edges="-52511313#1 -547023629#2 -547023629#1 -547023629#0 177566523#2 177566523#3 177566523#4 177566523#5 177566523#6 177566523#7"/>
    </person>
    <person id="ped94" type="ped_pedestrian" depart="660.37">
        <walk edges="177566523#4 177566523#3 177566523#2 -547023629#0"/>
    </person>
    <person id="ped95" type="ped_pedestrian" depart="667.39">
        <walk edges="-52663744#3 52664437#0 366913701#4 -366913701#3 622415793#0 273833832#3 177566556#0 547023629#2 622415769#0"/>
    </person>
    <person id="ped96" type="ped_pedestrian" depart="674.42">
        <walk edges="177566523#6 22843276#0 22843276#1 366913701#0 366913701#1 366913701#3 52511312 -52663744#2 52663744#3"/>
    </person>
    <person id="ped97" type="ped_pedestrian" depart="681.44">
        <walk edges="177566559#2 177566559#0 177566523#5 177566558#8 177566558#7 177566558#6 177566558#5 -22843127#2"/>
    </person>
    <person id="ped98" type="ped_pedestrian" depart="688.47">
        <walk edges="992408934 -22843127#0 185467797#0 52514846#1"/>
    </person>
    <person id="ped99" type="ped_pedestrian" depart="695.49">
        <walk edges="699397460 177566558#6 177566558#5 177566558#4 177566558#3 177566566 177566523#2 547023629#0 547023629#1 547023629#2 622415769#0"/>
    </person>
    <person id="ped100" type="ped_pedestrian" depart="702.52">
        <walk edges="52663744#0 -52663744#1 -52511312"/>
    </person>
    <person id="ped101" type="ped_pedestrian" depart="709.54">
        <walk edges="177566558#1 177566558#3 177566558#4 22843127#1 22843127#0 -185467797#0 -52514846#0"/>
    </person>
    <person id="ped102" type="ped_pedestrian" depart="716.57">
        <walk edges="177566523#2 177566566 177566558#3 177566558#4 177566558#5 -22843134"/>
    </person>
    <person id="ped103" type="ped_pedestrian" depart="723.59">
        <walk edges="-992408934 723552318#2"/>
    </person>
    <person id="ped104" type="ped_pedestrian" depart="730.62">
        <walk edges="-52664437#0 -52663744#3 -52663744#2 52511312"/>
    </person>
    <person id="ped105" type="ped_pedestrian" depart="737.64">
        <walk edges="177566556#0 672840525 177566523#4"/>
    </person>
    <person id="ped106" type="ped_pedestrian" depart="744.67">
        <walk edges="692042225 -692042225 52663744#2 -52511312 366913701#3 366913701#1 366913701#0 22843276#1 22843276#0 -366913700#0 -366913700#1 -366913700#2 366913700#3 366913700#4 22843127#0 992408934"/>
    </person>
    <person id="ped107" type="ped_pedestrian" depart="751.69">
        <walk edges="177566559#2 -366913700#1 366913700#2"/>
    </person>
    <person id="ped108" type="ped_pedestrian" depart="758.72">
        <walk edges="-366913701#5 -366913701#3 622415793#0 273833832#3 177566556#0 -547023629#2"/>
    </person>
    <person id="ped109" type="ped_pedestrian" depart="765.74">
        <walk edges="699397460 177566558#6 177566558#5 177566558#4 177566558#3 177566566"/>
    </person>
    <person id="ped110" type="ped_pedestrian" depart="772.77">
        <walk edges="177566559#0 -366913700#0 22843276#0 22843276#1 366913701#0 366913701#1"/>
    </person>
    <person id="ped111" type="ped_pedestrian" depart="779.79">
        <walk edges="-22843134 366913700#4 185467797#0"/>
    </person>
    <person id="ped112" type="ped_pedestrian" depart="786.82">
        <walk edges="177566558#4 177566558#5 177566558#6 177566558#7 177566558#8 177566523#5 177566523#6 22843276#0 22843276#1 366913701#0 366913701#1 366913701#3 -52511312 52663744#2"/>
    </person>
    <person id="ped113" type="ped_pedestrian" depart="793.84">
        <walk edges="-366913701#6 366913701#6 -52664437#0 52663744#3 692042225"/>
    </person>
    <person id="ped114" type="ped_pedestrian" depart="800.87">
        <walk edges="-366913700#0 177566523#6 177566523#5 177566523#4 177566523#3 177566523#2 -547023629#0 -547023629#1 -547023629#2 -52511313#1"/>
    </person>
    <person id="ped115" type="ped_pedestrian" depart="807.90">
        <walk edges="185467797#1 -52514846#0 52514845#0 177566559#2 -366913700#0 -622415793#2 273833832#3"/>
    </person>
    <person id="ped116" type="ped_pedestrian" depart="814.92">
        <walk edges="-52663744#2 52511312 366913701#3 366913701#1 366913701#0 22843276#1 22843276#0 -366913700#0 -366913700#1 -366913700#2 -366913700#3 -366913700#4"/>
    </person>
    <person id="ped117" type="ped_pedestrian" depart="821.95">
        <walk edges="52664437#1 -52663744#3"/>
    </person>
    <person id="ped118" type="ped_pedestrian" depart="828.97">
        <walk edges="185467797#1 185467797#0 -22843127#0 22843127#1"/>
    </person>
    <person id="ped119" type="ped_pedestrian" depart="836.00">
        <walk edges="177566523#4 177566523#3 177566566 177566558#3 177566558#4 -22843127#2 -22843127#0 185467797#0"/>
    </person>
    <person id="ped120" type="ped_pedestrian" depart="843.02">
        <walk edges="177566558#7 177566558#8 177566523#5 177566523#6 622415793#2 622415793#0"/>
    </person>
    <person id="ped121" type="ped_pedestrian" depart="850.05">
        <walk edges="-52514845#1 -366913700#3 366913700#2"/>
    </person>
    <person id="ped122" type="ped_pedestrian" depart="857.07">
        <walk edges="-52663744#2 52511312 -366913701#3 622415793#0 273833832#3 273833832#4 547023629#0 177566523#0"/>
    </person>
    <person id="ped123" type="ped_pedestrian" depart="864.10">
        <walk edges="273833832#3 177566556#0 -547023629#2"/>
    </person>
    <person id="ped124" type="ped_pedestrian" depart="871.12">
        <walk edges="-622415793#1 273833832#2 -22843276#1 366913701#0 366913701#1"/>
    </person>
    <person id="ped125" type="ped_pedestrian" depart="878.15">
        <walk edges="-22843276#1 273833832#2 273833832#3 177566556#0"/>
    </person>
    <person id="ped126" type="ped_pedestrian" depart="885.17">
        <walk edges="992408934"/>
    </person>
    <person id="ped127" type="ped_pedestrian" depart="892.20">
        <walk edges="-22843276#1 -22843276#0 -366913700#0 177566559#2 52514845#0 -52514846#0"/>
    </person>
    <person id="ped128" type="ped_pedestrian" depart="899.22">
        <walk edges="-52664437#0 -366913701#5 -366913701#3 622415793#0"/>
    </person>
    <person id="ped129" type="ped_pedestrian" depart="906.25">
        <walk edges="52664437#0"/>
    </person>
    <person id="ped130" type="ped_pedestrian" depart="913.27">
        <walk edges="-723552318#2 -992408934 -22843127#0 -366913700#4 -366913700#3 -366913700#2 -366913700#1 -366913700#0 22843276#0 22843276#1 366913701#0 366913701#1 366913701#3 -366913701#5 -366913701#6"/>
    </person>
    <person id="ped131" type="ped_pedestrian" depart="920.30">
        <walk edges="52514846#0 52514845#0 177566559#2 366913700#0"/>
    </person>
    <person id="ped132" type="ped_pedestrian" depart="927.32">
        <walk edges="22843127#0 -992408934 723552318#2"/>
    </person>
    <person id="ped133" type="ped_pedestrian" depart="934.35">
        <walk edges="273833832#0 22843276#0 177566523#6 177566523#5 177566558#8 -104902793"/>
    </person>
    <person id="ped134" type="ped_pedestrian" depart="941.37">
        <walk edges="52514845#0 177566559#2 177566559#0 177566523#5 177566523#4 177566523#3 177566523#2 -547023629#0 -547023629#1 -547023629#2"/>
    </person>
    <person id="ped135" type="ped_pedestrian" depart="948.40">
        <walk edges="273833832#2 622415793#0"/>
    </person>
    <person id="ped136" type="ped_pedestrian" depart="955.42">
        <walk edges="-366913701#2 366913701#0 22843276#1 22843276#0 -366913700#0 -366913700#1 -366913700#2 -366913700#3 -366913700#4"/>
    </person>
    <person id="ped137" type="ped_pedestrian" depart="962.45">
        <walk edges="-366913700#3 -366913700#2 -366913700#1 177566559#2"/>
    </person>
    <person id="ped138" type="ped_pedestrian" depart="969.47">
        <walk edges="-52664437#1 -52664437#0 -366913701#5 -366913701#3 622415793#0 273833832#3 672840525 177566523#3 177566566 177566558#1 22843125"/>
    </person>
    <person id="ped139" type="ped_pedestrian" depart="976.50">
        <walk edges="366913700#2 -366913700#3 -52514845#1"/>
    </person>
    <person id="ped140" type="ped_pedestrian" depart="983.52">
        <walk edges="22843134 366913700#3 -366913700#2 -366913700#1 -366913700#0 22843276#0 22843276#1 366913701#0 366913701#1 366913701#3 366913701#4 -52664437#0"/>
    </person>
    <person id="ped141" type="ped_pedestrian" depart="990.55">
        <walk edges="177566558#3 177566566 177566523#2 547023629#0 547023629#1"/>
    </person>
    <person id="ped142" type="ped_pedestrian" depart="997.57">
        <walk edges="52663744#0 -52663744#1 -52511312 366913701#3 366913701#1 366913701#0 22843276#1 22843276#0 -366913700#0 -366913700#1"/>
    </person>
    <person id="ped143" type="ped_pedestrian" depart="1004.60">
        <walk edges="177566523#4 672840525 273833832#3 622415793#0 -366913701#3 -366913701#5 -52664437#0 -52664437#1"/>
    </person>
    <person id="ped144" type="ped_pedestrian" depart="1011.63">
        <walk edges="-104902793 177566558#8 177566523#5 177566523#6 22843276#0 22843276#1 366913701#0 366913701#1 366913701#3 366913701#4"/>
    </person>
    <person id="ped145" type="ped_pedestrian" depart="1018.65">
        <walk edges="22843276#0 22843276#1 366913701#0 366913701#1 366913701#3 366913701#4 -52664437#0"/>
    </person>
    <person id="ped146" type="ped_pedestrian" depart="1025.68">
        <walk edges="366913701#0 22843276#1 22843276#0 -366913700#0 177566559#2"/>
    </person>
    <person id="ped147" type="ped_pedestrian" depart="1032.70">
        <walk edges="177566523#5 177566558#8 104902793 -366913700#2 -366913700#3 52514845#1 52514846#0 -185467797#0"/>
    </person>
    <person id="ped148" type="ped_pedestrian" depart="1039.73">
        <walk edges="-22843276#1 366913701#0 366913701#1 366913701#3 366913701#4 52664437#0"/>
    </person>
    <person id="ped149" type="ped_pedestrian" depart="1046.75">
        <walk edges="547023629#0 177566523#2 177566523#3 177566523#4 177566523#5 177566559#0"/>
    </person>
    <person id="ped150" type="ped_pedestrian" depart="1053.78">
        <walk edges="52514846#0 -52514845#1 -22843134 177566558#5 177566558#4 177566558#3 177566566"/>
    </person>
    <person id="ped151" type="ped_pedestrian" depart="1060.80">
        <walk edges="-366913701#5 -366913701#3 -366913701#2 -366913701#0"/>
    </person>
    <person id="ped152" type="ped_pedestrian" depart="1067.83">
        <walk edges="-622415769#0 547023629#2 547023629#1 547023629#0"/>
    </person>
    <person id="ped153" type="ped_pedestrian" depart="1074.85">
        <walk edges="52511313#0 -622415769#0 547023629#2 177566556#0 273833832#3 622415793#0 -366913701#3 -52511312 52663744#2"/>
    </person>
    <person id="ped154" type="ped_pedestrian" depart="1081.88">
        <walk edges="547023629#0 177566523#2 177566566 177566558#3 177566558#4 22843127#1 22843127#0 -185467797#0 -52514846#0"/>
    </person>
    <person id="ped155" type="ped_pedestrian" depart="1088.90">
        <walk edges="-52663744#3 52664437#0 366913701#4 366913701#3 366913701#1 366913701#0 22843276#1 22843276#0 -366913700#0 -366913700#1 -366913700#2"/>
    </person>
    <person id="ped156" type="ped_pedestrian" depart="1095.93">
        <walk edges="366913701#6 52664437#0"/>
    </person>
    <person id="ped157" type="ped_pedestrian" depart="1102.95">
        <walk edges="177566523#2 177566566 177566558#3 177566558#4 22843127#1"/>
    </person>
    <person id="ped158" type="ped_pedestrian" depart="1109.98">
        <walk edges="-366913701#5 -366913701#3 622415793#0 273833832#3 177566556#0 547023629#2 622415769#0"/>
    </person>
    <person id="ped159" type="ped_pedestrian" depart="1117.00">