<?xml version="1.0" encoding="UTF-8"?>

<!-- generated on 2021-12-06 01:41:29 by Eclipse SUMO duarouter Version 1.9.2
<configuration xmlns:xsi="http://www.w3.org/2001/XMLSchema-instance" xsi:noNamespaceSchemaLocation="http://sumo.dlr.de/xsd/duarouterConfiguration.xsd">

    <input>
        <net-file value="C:\Users\saurabh\Sumo\2021-12-06-01-41-26\osm.net.xml"/>
        <route-files value="C:\Users\saurabh\Sumo\2021-12-06-01-41-26\osm.passenger.trips.xml"/>
    </input>

    <output>
        <output-file value="C:\Users\saurabh\Sumo\2021-12-06-01-41-26\osm.passenger.trips.xml.tmp"/>
        <write-trips value="true"/>
    </output>

    <time>
        <begin value="0"/>
        <end value="3600"/>
    </time>

    <report>
        <no-warnings value="true"/>
        <ignore-errors value="true"/>
        <no-step-log value="true"/>
    </report>

</configuration>
-->

<routes xmlns:xsi="http://www.w3.org/2001/XMLSchema-instance" xsi:noNamespaceSchemaLocation="http://sumo.dlr.de/xsd/routes_file.xsd">
    <vType id="veh_passenger" vClass="passenger"/>
    <trip id="veh1" type="veh_passenger" depart="5.85" departLane="best" from="273833832#3" to="273833832#3"/>
    <trip id="veh2" type="veh_passenger" depart="11.71" departLane="best" from="-52664437#1" to="177566558#5"/>
    <trip id="veh3" type="veh_passenger" depart="17.56" departLane="best" from="-22843125" to="-52663746"/>
    <trip id="veh4" type="veh_passenger" depart="23.42" departLane="best" departSpeed="max" from="273833832#0" to="177566559#3"/>
    <trip id="veh5" type="veh_passenger" depart="29.27" departLane="best" from="-52664437#1" to="185467797#0"/>
    <trip id="veh6" type="veh_passenger" depart="35.13" departLane="best" from="366913701#3" to="273833832#5"/>
    <trip id="veh7" type="veh_passenger" depart="40.98" departLane="best" departSpeed="max" from="177566523#0" to="-52514845#1"/>
    <trip id="veh8" type="veh_passenger" depart="46.83" departLane="best" from="-366913700#4" to="-366913701#0"/>
    <trip id="veh10" type="veh_passenger" depart="58.54" departLane="best" from="366913701#4" to="273833832#5"/>
    <trip id="veh11" type="veh_passenger" depart="64.40" departLane="best" from="177566558#5" to="692042225"/>
    <trip id="veh12" type="veh_passenger" depart="70.25" departLane="best" departSpeed="max" from="177566523#0" to="177566559#4"/>
    <trip id="veh13" type="veh_passenger" depart="76.11" departLane="best" from="52514846#0" to="177566559#4"/>
    <trip id="veh14" type="veh_passenger" depart="81.96" departLane="best" departSpeed="max" from="273833832#0" to="-22843134"/>
    <trip id="veh15" type="veh_passenger" depart="87.81" departLane="best" from="-366913700#2" to="-547023629#2"/>
    <trip id="veh16" type="veh_passenger" depart="93.67" departLane="best" departSpeed="max" from="177566523#0" to="-52664437#1"/>
    <trip id="veh17" type="veh_passenger" depart="99.52" departLane="best" from="-622415793#2" to="622415769#0"/>
    <trip id="veh18" type="veh_passenger" depart="105.38" departLane="best" departSpeed="max" from="273833832#0" to="22843127#0"/>
    <trip id="veh19" type="veh_passenger" depart="111.23" departLane="best" from="-52514846#0" to="273833832#5"/>
    <trip id="veh20" type="veh_passenger" depart="117.09" departLane="best" from="-52514845#1" to="177566523#7"/>
    <trip id="veh21" type="veh_passenger" depart="122.94" departLane="best" from="723552318#2" to="22843276#1"/>
    <trip id="veh22" type="veh_passenger" depart="128.79" departLane="best" from="177566558#8" to="273833832#4"/>
    <trip id="veh23" type="veh_passenger" depart="134.65" departLane="best" from="-547023629#1" to="-22843127#0"/>
    <trip id="veh24" type="veh_passenger" depart="140.50" departLane="best" from="104902793" to="-692042225"/>
    <trip id="veh25" type="veh_passenger" depart="146.36" departLane="best" from="-52664437#0" to="622415793#0"/>
    <trip id="veh26" type="veh_passenger" depart="152.21" departLane="best" from="52663744#2" to="177566523#2"/>
    <trip id="veh27" type="veh_passenger" depart="158.07" departLane="best" from="547023629#0" to="177566556#1"/>
    <trip id="veh28" type="veh_passenger" depart="163.92" departLane="best" from="177566559#0" to="-672840525"/>
    <trip id="veh29" type="veh_passenger" depart="169.78" departLane="best" from="-366913700#4" to="-22843276#0"/>
    <trip id="veh30" type="veh_passenger" depart="175.63" departLane="best" from="366913701#0" to="177566523#7"/>
    <trip id="veh31" type="veh_passenger" depart="181.48" departLane="best" from="-366913700#0" to="177566523#7"/>
    <trip id="veh32" type="veh_passenger" depart="187.34" departLane="best" from="992408934" to="177566559#0"/>
    <trip id="veh33" type="veh_passenger" depart="193.19" departLane="best" from="692042225" to="52514846#0"/>
    <trip id="veh34" type="veh_passenger" depart="199.05" departLane="best" from="-185467797#0" to="273833832#5"/>
    <trip id="veh35" type="veh_passenger" depart="204.90" departLane="best" departSpeed="max" from="273833832#0" to="177566559#2"/>
    <trip id="veh36" type="veh_passenger" depart="210.76" departLane="best" from="-366913701#3" to="177566523#7"/>
    <trip id="veh37" type="veh_passenger" depart="216.61" departLane="best" from="52663744#0" to="-672840525"/>
    <trip id="veh38" type="veh_passenger" depart="222.46" departLane="best" departSpeed="max" from="177566558#0" to="-52663744#1"/>
    <trip id="veh39" type="veh_passenger" depart="228.32" departLane="best" from="547023629#0" to="52514846#1"/>
    <trip id="veh40" type="veh_passenger" depart="234.17" departLane="best" from="-723552318#2" to="22843276#1"/>
    <trip id="veh41" type="veh_passenger" depart="240.03" departLane="best" from="22843127#0" to="-52514845#0"/>
    <trip id="veh42" type="veh_passenger" depart="245.88" departLane="best" from="-185467797#1" to="547023629#2"/>
    <trip id="veh43" type="veh_passenger" depart="251.74" departLane="best" from="-992408934" to="-22843276#1"/>
    <trip id="veh45" type="veh_passenger" depart="263.44" departLane="best" from="177566556#0" to="177566559#4"/>
    <trip id="veh46" type="veh_passenger" depart="269.30" departLane="best" from="177566523#4" to="-52664437#1"/>
    <trip id="veh47" type="veh_passenger" depart="275.15" departLane="best" from="177566558#6" to="273833832#5"/>
    <trip id="veh49" type="veh_passenger" depart="286.86" departLane="best" from="-366913701#5" to="-547023629#1"/>
    <trip id="veh50" type="veh_passenger" depart="292.72" departLane="best" departSpeed="max" from="177566523#0" to="185467797#0"/>
    <trip id="veh51" type="veh_passenger" depart="298.57" departLane="best" from="-547023629#1" to="52664437#0"/>
    <trip id="veh52" type="veh_passenger" depart="304.42" departLane="best" from="-52664437#1" to="-52511312"/>
    <trip id="veh53" type="veh_passenger" depart="310.28" departLane="best" from="622415769#0" to="177566559#4"/>
    <trip id="veh54" type="veh_passenger" depart="316.13" departLane="best" from="177566556#0" to="366913700#3"/>
    <trip id="veh55" type="veh_passenger" depart="321.99" departLane="best" from="-366913701#0" to="177566523#7"/>
    <trip id="veh56" type="veh_passenger" depart="327.84" departLane="best" from="177566523#4" to="177566556#1"/>
    <trip id="veh57" type="veh_passenger" depart="333.70" departLane="best" from="273833832#3" to="273833832#3"/>
    <trip id="veh58" type="veh_passenger" depart="339.55" departLane="best" from="723552318#0" to="-366913701#0"/>
    <trip id="veh59" type="veh_passenger" depart="345.40" departLane="best" from="177566523#3" to="177566523#4"/>
    <trip id="veh60" type="veh_passenger" depart="351.26" departLane="best" from="-52663744#2" to="177566556#1"/>
    <trip id="veh61" type="veh_passenger" depart="357.11" departLane="best" from="-622415793#1" to="547023629#1"/>
    <trip id="veh62" type="veh_passenger" depart="362.97" departLane="best" from="692042225" to="547023629#1"/>
    <trip id="veh63" type="veh_passenger" depart="368.82" departLane="best" departSpeed="max" from="177566558#0" to="-547023629#0"/>
    <trip id="veh64" type="veh_passenger" depart="374.68" departLane="best" from="177566523#3" to="-22843276#1"/>
    <trip id="veh65" type="veh_passenger" depart="380.53" departLane="best" departSpeed="max" from="177566523#0" to="723552318#0"/>
    <trip id="veh66" type="veh_passenger" depart="386.38" departLane="best" from="177566523#6" to="177566523#7"/>
    <trip id="veh67" type="veh_passenger" depart="392.24" departLane="best" from="622415793#2" to="992408934"/>
    <trip id="veh68" type="veh_passenger" depart="398.09" departLane="best" from="177566558#8" to="273833832#5"/>
    <trip id="veh69" type="veh_passenger" depart="403.95" departLane="best" from="692042225" to="177566559#4"/>
    <trip id="veh70" type="veh_passenger" depart="409.80" departLane="best" from="177566558#6" to="273833832#5"/>
    <trip id="veh72" type="veh_passenger" depart="421.51" departLane="best" departSpeed="max" from="177566558#0" to="52514845#0"/>
    <trip id="veh73" type="veh_passenger" depart="427.36" departLane="best" from="-52514845#0" to="672840525"/>
    <trip id="veh74" type="veh_passenger" depart="433.22" departLane="best" from="-366913700#2" to="-52663744#2"/>
    <trip id="veh75" type="veh_passenger" depart="439.07" departLane="best" from="185467797#1" to="273833832#3"/>
    <trip id="veh76" type="veh_passenger" depart="444.93" departLane="best" from="-547023629#2" to="-366913701#5"/>
    <trip id="veh77" type="veh_passenger" depart="450.78" departLane="best" from="185467797#1" to="22843127#1"/>
    <trip id="veh78" type="veh_passenger" depart="456.64" departLane="best" from="-52663746" to="273833832#5"/>
    <trip id="veh79" type="veh_passenger" depart="462.49" departLane="best" from="-547023629#2" to="177566523#7"/>
    <trip id="veh80" type="veh_passenger" depart="468.35" departLane="best" departSpeed="max" from="273833832#0" to="-992408934"/>
    <trip id="veh81" type="veh_passenger" depart="474.20" departLane="best" from="104902793" to="273833832#5"/>
    <trip id="veh82" type="veh_passenger" depart="480.05" departLane="best" from="-366913700#1" to="177566556#1"/>
    <trip id="veh83" type="veh_passenger" depart="485.91" departLane="best" from="-366913700#1" to="-52664437#1"/>
    <trip id="veh84" type="veh_passenger" depart="491.76" departLane="best" from="-622415793#2" to="547023629#2"/>
    <trip id="veh85" type="veh_passenger" depart="497.62" departLane="best" departSpeed="max" from="177566523#0" to="-52514845#1"/>
    <trip id="veh86" type="veh_passenger" depart="503.47" departLane="best" from="52511313#0" to="273833832#5"/>
    <trip id="veh87" type="veh_passenger" depart="509.33" departLane="best" departSpeed="max" from="273833832#0" to="-185467797#0"/>
    <trip id="veh88" type="veh_passenger" depart="515.18" departLane="best" from="366913701#6" to="-992408934"/>
    <trip id="veh89" type="veh_passenger" depart="521.03" departLane="best" departSpeed="max" from="273833832#0" to="622415769#0"/>
    <trip id="veh90" type="veh_passenger" depart="526.89" departLane="best" from="-366913701#2" to="177566559#4"/>
    <trip id="veh91" type="veh_passenger" depart="532.74" departLane="best" from="273833832#2" to="-52664437#0"/>
    <trip id="veh92" type="veh_passenger" depart="538.60" departLane="best" from="22843276#0" to="-672840525"/>
    <trip id="veh93" type="veh_passenger" depart="544.45" departLane="best" departSpeed="max" from="177566558#0" to="52664437#0"/>
    <trip id="veh94" type="veh_passenger" depart="550.31" departLane="best" from="22843276#1" to="-672840525"/>
    <trip id="veh95" type="veh_passenger" depart="556.16" departLane="best" from="273833832#4" to="177566559#4"/>
    <trip id="veh96" type="veh_passenger" depart="562.01" departLane="best" from="-366913700#1" to="52663744#2"/>
    <trip id="veh97" type="veh_passenger" depart="567.87" departLane="best" from="52664437#1" to="177566559#3"/>
    <trip id="veh98" type="veh_passenger" depart="573.72" departLane="best" from="-52511313#1" to="-52511312"/>
    <trip id="veh99" type="veh_passenger" depart="579.58" departLane="best" from="366913700#4" to="52663744#2"/>
    <trip id="veh100" type="veh_passenger" depart="585.43" departLane="best" from="-52514845#0" to="547023629#2"/>
    <trip id="veh101" type="veh_passenger" depart="591.29" departLane="best" from="-22843125" to="273833832#5"/>
    <trip id="veh102" type="veh_passenger" depart="597.14" departLane="best" departSpeed="max" from="177566523#0" to="547023629#2"/>
    <trip id="veh103" type="veh_passenger" depart="602.99" departLane="best" from="366913701#3" to="52514846#0"/>
    <trip id="veh104" type="veh_passenger" depart="608.85" departLane="best" from="52663744#0" to="52514845#1"/>
    <trip id="veh105" type="veh_passenger" depart="614.70" departLane="best" from="-547023629#0" to="366913701#4"/>
    <trip id="veh106" type="veh_passenger" depart="620.56" departLane="best" from="366913701#1" to="-547023629#2"/>
    <trip id="veh107" type="veh_passenger" depart="626.41" departLane="best" from="-22843125" to="-52663744#3"/>
    <trip id="veh108" type="veh_passenger" depart="632.27" departLane="best" departSpeed="max" from="177566523#0" to="52514846#0"/>
    <trip id="veh109" type="veh_passenger" depart="638.12" departLane="best" from="692042225" to="-699397460"/>
    <trip id="veh110" type="veh_passenger" depart="643.97" departLane="best" from="723552318#0" to="177566559#2"/>
    <trip id="veh111" type="veh_passenger" depart="649.83" departLane="best" from="692042225" to="-52663744#1"/>
    <trip id="veh112" type="veh_passenger" depart="655.68" departLane="best" from="-366913701#2" to="177566523#7"/>
    <trip id="veh113" type="veh_passenger" depart="661.54" departLane="best" from="273833832#3" to="177566523#2"/>
    <trip id="veh114" type="veh_passenger" depart="667.39" departLane="best" from="22843125" to="177566558#6"/>
    <trip id="veh115" type="veh_passenger" depart="673.25" departLane="best" departSpeed="max" from="177566523#0" to="177566559#4"/>
    <trip id="veh116" type="veh_passenger" depart="679.10" departLane="best" from="-622415793#1" to="273833832#5"/>
    <trip id="veh117" type="veh_passenger" depart="684.95" departLane="best" from="-104902793" to="547023629#1"/>
    <trip id="veh118" type="veh_passenger" depart="690.81" departLane="best" from="177566558#6" to="273833832#5"/>
    <trip id="veh119" type="veh_passenger" depart="696.66" departLane="best" departSpeed="max" from="177566523#0" to="-366913700#1"/>
    <trip id="veh120" type="veh_passenger" depart="702.52" departLane="best" departSpeed="max" from="273833832#0" to="177566523#3"/>
    <trip id="veh121" type="veh_passenger" depart="708.37" departLane="best" from="-992408934" to="177566523#7"/>
    <trip id="veh122" type="veh_passenger" depart="714.23" departLane="best" from="-366913701#6" to="177566523#7"/>
    <trip id="veh123" type="veh_passenger" depart="720.08" departLane="best" from="622415793#0" to="273833832#3"/>
    <trip id="veh124" type="veh_passenger" depart="725.93" departLane="best" from="52664437#0" to="22843127#1"/>
    <trip id="veh125" type="veh_passenger" depart="731.79" departLane="best" from="-723552318#2" to="177566559#4"/>
    <trip id="veh126" type="veh_passenger" depart="737.64" departLane="best" from="177566523#5" to="177566559#4"/>
    <trip id="veh127" type="veh_passenger" depart="743.50" departLane="best" departSpeed="max" from="273833832#0" to="177566556#1"/>
    <trip id="veh128" type="veh_passenger" depart="749.35" departLane="best" from="177566523#6" to="-547023629#0"/>
    <trip id="veh129" type="veh_passenger" depart="755.21" departLane="best" from="177566556#0" to="52664437#0"/>
    <trip id="veh130" type="veh_passenger" depart="761.06" departLane="best" from="366913701#6" to="273833832#5"/>
    <trip id="veh131" type="veh_passenger" depart="766.92" departLane="best" departSpeed="max" from="273833832#0" to="-547023629#1"/>
    <trip id="veh133" type="veh_passenger" depart="778.62" departLane="best" from="-622415769#0" to="177566556#1"/>
    <trip id="veh134" type="veh_passenger" depart="784.48" departLane="best" from="177566523#4" to="22843276#0"/>
    <trip id="veh135" type="veh_passenger" depart="790.33" departLane="best" from="-52663744#3" to="273833832#5"/>
    <trip id="veh136" type="veh_passenger" depart="796.19" departLane="best" departSpeed="max" from="177566558#0" to="-622415793#1"/>
    <trip id="veh137" type="veh_passenger" depart="802.04" departLane="best" departSpeed="max" from="273833832#0" to="-104902793"/>
    <trip id="veh138" type="veh_passenger" depart="807.90" departLane="best" from="273833832#4" to="366913700#1"/>
    <trip id="veh139" type="veh_passenger" depart="813.75" departLane="best" from="-366913701#2" to="177566523#7"/>
    <trip id="veh140" type="veh_passenger" depart="819.60" departLane="best" from="177566558#3" to="-22843276#0"/>
    <trip id="veh141" type="veh_passenger" depart="825.46" departLane="best" departSpeed="max" from="273833832#0" to="723552318#2"/>
    <trip id="veh142" type="veh_passenger" depart="831.31" departLane="best" from="52663746" to="22843127#0"/>
    <trip id="veh143" type="veh_passenger" depart="837.17" departLane="best" from="273833832#2" to="177566558#5"/>
    <trip id="veh144" type="veh_passenger" depart="843.02" departLane="best" from="52511313#0" to="177566559#4"/>
    <trip id="veh145" type="veh_passenger" depart="848.88" departLane="best" from="52664437#0" to="273833832#5"/>
    <trip id="veh146" type="veh_passenger" depart="854.73" departLane="best" from="177566556#0" to="-622415793#2"/>
    <trip id="veh147" type="veh_passenger" depart="860.58" departLane="best" from="-622415769#0" to="22843276#1"/>
    <trip id="veh148" type="veh_passenger" depart="866.44" departLane="best" from="-547023629#1" to="273833832#5"/>
    <trip id="veh149" type="veh_passenger" depart="872.29" departLane="best" departSpeed="max" from="273833832#0" to="-366913700#0"/>
    <trip id="veh150" type="veh_passenger" depart="878.15" departLane="best" from="177566523#3" to="177566559#3"/>
    <trip id="veh151" type="veh_passenger" depart="884.00" departLane="best" from="177566523#4" to="-52664437#1"/>
    <trip id="veh152" type="veh_passenger" depart="889.86" departLane="best" from="177566523#4" to="52664437#0"/>
    <trip id="veh153" type="veh_passenger" depart="895.71" departLane="best" from="177566566" to="273833832#5"/>
    <trip id="veh154" type="veh_passenger" depart="901.56" departLane="best" departSpeed="max" from="177566523#0" to="-104902793"/>
    <trip id="veh155" type="veh_passenger" depart="907.42" departLane="best" from="177566523#4" to="273833832#5"/>
    <trip id="veh157" type="veh_passenger" depart="919.13" departLane="best" from="-52664437#1" to="-547023629#0"/>
    <trip id="veh158" type="veh_passenger" depart="924.98" departLane="best" departSpeed="max" from="177566523#0" to="273833832#3"/>
    <trip id="veh159" type="veh_passenger" depart="930.84" departLane="best" from="177566523#3" to="-52514846#0"/>
    <trip id="veh160" type="veh_passenger" depart="936.69" departLane="best" from="177566523#2" to="177566559#4"/>
    <trip id="veh162" type="veh_passenger" depart="948.40" departLane="best" from="-52511312" to="177566556#1"/>
    <trip id="veh163" type="veh_passenger" depart="954.25" departLane="best" from="-22843276#0" to="177566523#7"/>
    <trip id="veh164" type="veh_passenger" depart="960.11" departLane="best" from="-52664437#0" to="177566523#3"/>
    <trip id="veh165" type="veh_passenger" depart="965.96" departLane="best" from="366913700#1" to="177566523#7"/>
    <trip id="veh166" type="veh_passenger" depart="971.82" departLane="best" departSpeed="max" from="273833832#0" to="366913700#3"/>
    <trip id="veh167" type="veh_passenger" depart="977.67" departLane="best" departSpeed="max" from="273833832#0" to="273833832#5"/>
    <trip id="veh168" type="veh_passenger" depart="983.52" departLane="best" from="-366913701#6" to="273833832#3"/>
    <trip id="veh169" type="veh_passenger" depart="989.38" departLane="best" from="177566559#0" to="-547023629#0"/>
    <trip id="veh170" type="veh_passenger" depart="995.23" departLane="best" departSpeed="max" from="273833832#0" to="366913700#1"/>
    <trip id="veh171" type="veh_passenger" depart="1001.09" departLane="best" from="273833832#4" to="-366913701#5"/>
    <trip id="veh172" type="veh_passenger" depart="1006.94" departLane="best" from="366913701#6" to="672840525"/>
    <trip id="veh174" type="veh_passenger" depart="1018.65" departLane="best" from="104902793" to="273833832#3"/>
    <trip id="veh175" type="veh_passenger" depart="1024.50" departLane="best" from="622415793#2" to="177566523#7"/>
    <trip id="veh176" type="veh_passenger" depart="1030.36" departLane="best" departSpeed="max" from="273833832#0" to="22843276#0"/>
    <trip id="veh178" type="veh_passenger" depart="1042.07" departLane="best" from="-366913701#5" to="723552318#0"/>
    <trip id="veh179" type="veh_passenger" depart="1047.92" departLane="best" departSpeed="max" from="177566558#0" to="177566523#4"/>
    <trip id="veh180" type="veh_passenger" depart="1053.78" departLane="best" from="52514845#1" to="366913701#6"/>
    <trip id="veh181" type="veh_passenger" depart="1059.63" departLane="best" from="-366913701#2" to="672840525"/>
    <trip id="veh182" type="veh_passenger" depart="1065.48" departLane="best" from="273833832#3" to="672840525"/>
    <trip id="veh183" type="veh_passenger" depart="1071.34" departLane="best" from="-672840525" to="366913701#3"/>
    <trip id="veh184" type="veh_passenger" depart="1077.19" departLane="best" from="177566523#5" to="273833832#5"/>
    <trip id="veh185" type="veh_passenger" depart="1083.05" departLane="best" from="52511313#0" to="-366913700#3"/>
    <trip id="veh187" type="veh_passenger" depart="1094.76" departLane="best" departSpeed="max" from="177566523#0" to="-22843127#0"/>
    <trip id="veh188" type="veh_passenger" depart="1100.61" departLane="best" from="52514845#1" to="-52663744#2"/>
    <trip id="veh189" type="veh_passenger" depart="1106.47" departLane="best" from="-52664437#0" to="366913701#0"/>
    <trip id="veh190" type="veh_passenger" depart="1112.32" departLane="best" departSpeed="max" from="177566523#0" to="52663744#2"/>
    <trip id="veh191" type="veh_passenger" depart="1118.17" departLane="best" departSpeed="max" from="273833832#0" to="-699397460"/>
    <trip id="veh192" type="veh_passenger" depart="1124.03" departLane="best" from="-366913700#3" to="273833832#5"/>
    <trip id="veh193" type="veh_passenger" depart="1129.88" departLane="best" departSpeed="max" from="273833832#0" to="273833832#0"/>
    <trip id="veh194" type="veh_passenger" depart="1135.74" departLane="best" from="-366913700#4" to="-547023629#1"/>
    <trip id="veh195" type="veh_passenger" depart="1141.59" departLane="best" departSpeed="max" from="273833832#0" to="104902793"/>
    <trip id="veh196" type="veh_passenger" depart="1147.45" departLane="best" from="177566566" to="177566556#1"/>
    <trip id="veh197" type="veh_passenger" depart="1153.30" departLane="best" from="177566558#4" to="177566523#7"/>
    <trip id="veh198" type="veh_passenger" depart="1159.15" departLane="best" departSpeed="max" from="273833832#0" to="-692042225"/>
    <trip id="veh199" type="veh_passenger" depart="1165.01" departLane="best" from="-622415793#1" to="-366913701#6"/>
    <trip id="veh200" type="veh_passenger" depart="1170.86" departLane="best" from="177566558#5" to="366913700#0"/>
    <trip id="veh201" type="veh_passenger" depart="1176.72" departLane="best" from="-52663744#1" to="-547023629#0"/>
    <trip id="veh202" type="veh_passenger" depart="1182.57" departLane="best" from="-52663744#3" to="-547023629#2"/>
    <trip id="veh203" type="veh_passenger" depart="1188.43" departLane="best" from="-52663744#1" to="-185467797#1"/>
    <trip id="veh204" type="veh_passenger" depart="1194.28" departLane="best" from="699397460" to="177566559#4"/>
    <trip id="veh205" type="veh_passenger" depart="1200.13" departLane="best" departSpeed="max" from="273833832#0" to="-366913701#6"/>
    <trip id="veh207" type="veh_passenger" depart="1211.84" departLane="best" from="52663744#0" to="177566559#4"/>
    <trip id="veh208" type="veh_passenger" depart="1217.70" departLane="best" from="622415793#0" to="177566556#1"/>
    <trip id="veh209" type="veh_passenger" depart="1223.55" departLane="best" from="52511312" to="177566523#7"/>
    <trip id="veh210" type="veh_passenger" depart="1229.41" departLane="best" from="992408934" to="-366913701#5"/>
    <trip id="veh212" type="veh_passenger" depart="1241.11" departLane="best" from="366913701#0" to="-547023629#1"/>
    <trip id="veh213" type="veh_passenger" depart="1246.97" departLane="best" from="177566558#3" to="177566556#1"/>
    <trip id="veh214" type="veh_passenger" depart="1252.82" departLane="best" from="273833832#4" to="622415793#0"/>
    <trip id="veh215" type="veh_passenger" depart="1258.68" departLane="best" departSpeed="max" from="273833832#0" to="-52514845#1"/>
    <trip id="veh216" type="veh_passenger" depart="1264.53" departLane="best" from="-104902793" to="177566556#1"/>
    <trip id="veh217" type="veh_passenger" depart="1270.39" departLane="best" from="-547023629#1" to="273833832#5"/>
    <trip id="veh218" type="veh_passenger" depart="1276.24" departLane="best" departSpeed="max" from="273833832#0" to="177566556#1"/>
    <trip id="veh219" type="veh_passenger" depart="1282.09" departLane="best" departSpeed="max" from="273833832#0" to="547023629#1"/>
    <trip id="veh220" type="veh_passenger" depart="1287.95" departLane="best" from="366913701#0" to="22843134"/>
    <trip id="veh221" type="veh_passenger" depart="1293.80" departLane="best" departSpeed="max" from="273833832#0" to="622415769#0"/>
    <trip id="veh222" type="veh_passenger" depart="1299.66" departLane="best" from="177566523#4" to="177566559#3"/>
    <trip id="veh223" type="veh_passenger" depart="1305.51" departLane="best" departSpeed="max" from="273833832#0" to="52664437#1"/>
    <trip id="veh224" type="veh_passenger" depart="1311.37" departLane="best" from="-52514846#0" to="177566523#2"/>
    <trip id="veh225" type="veh_passenger" depart="1317.22" departLane="best" from="273833832#4" to="177566559#4"/>
    <trip id="veh226" type="veh_passenger" depart="1323.07" departLane="best" from="-699397460" to="-366913701#6"/>
    <trip id="veh227" type="veh_passenger" depart="1328.93" departLane="best" departSpeed="max" from="273833832#0" to="273833832#5"/>
    <trip id="veh228" type="veh_passenger" depart="1334.78" departLane="best" departSpeed="max" from="177566558#0" to="-366913700#3"/>
    <trip id="veh229" type="veh_passenger" depart="1340.64" departLane="best" from="-22843127#2" to="177566523#7"/>
    <trip id="veh230" type="veh_passenger" depart="1346.49" departLane="best" departSpeed="max" from="177566523#0" to="-622415793#2"/>
    <trip id="veh231" type="veh_passenger" depart="1352.35" departLane="best" from="52511313#1" to="177566559#4"/>
    <trip id="veh232" type="veh_passenger" depart="1358.20" departLane="best" from="622415793#2" to="992408934"/>
    <trip id="veh233" type="veh_passenger" depart="1364.05" departLane="best" departSpeed="max" from="273833832#0" to="-692042225"/>
    <trip id="veh234" type="veh_passenger" depart="1369.91" departLane="best" from="-22843127#2" to="273833832#5"/>
    <trip id="veh236" type="veh_passenger" depart="1381.62" departLane="best" from="547023629#0" to="-52663744#2"/>
    <trip id="veh237" type="veh_passenger" depart="1387.47" departLane="best" from="177566566" to="22843276#1"/>
    <trip id="veh238" type="veh_passenger" depart="1393.33" departLane="best" departSpeed="max" from="177566558#0" to="-366913700#4"/>
    <trip id="veh239" type="veh_passenger" depart="1399.18" departLane="best" departSpeed="max" from="177566523#0" to="177566523#3"/>
    <trip id="veh240" type="veh_passenger" depart="1405.04" departLane="best" departSpeed="max" from="273833832#0" to="52514845#1"/>
    <trip id="veh241" type="veh_passenger" depart="1410.89" departLane="best" from="366913701#4" to="177566559#4"/>
    <trip id="veh242" type="veh_passenger" depart="1416.74" departLane="best" from="177566523#6" to="177566523#2"/>
    <trip id="veh243" type="veh_passenger" depart="1422.60" departLane="best" departSpeed="max" from="177566523#0" to="692042225"/>
    <trip id="veh244" type="veh_passenger" depart="1428.45" departLane="best" from="723552318#2" to="273833832#2"/>
    <trip id="veh245" type="veh_passenger" depart="1434.31" departLane="best" from="177566558#6" to="177566523#7"/>
    <trip id="veh246" type="veh_passenger" depart="1440.16" departLane="best" from="-52663744#2" to="177566523#6"/>
    <trip id="veh247" type="veh_passenger" depart="1446.02" departLane="best" from="366913700#0" to="22843134"/>
    <trip id="veh248" type="veh_passenger" depart="1451.87" departLane="best" from="366913700#1" to="-52664437#0"/>
    <trip id="veh249" type="veh_passenger" depart="1457.72" departLane="best" from="177566523#5" to="273833832#5"/>
    <trip id="veh250" type="veh_passenger" depart="1463.58" departLane="best" from="22843127#0" to="-622415769#0"/>
    <trip id="veh251" type="veh_passenger" depart="1469.43" departLane="best" from="-52514845#0" to="177566559#4"/>
    <trip id="veh252" type="veh_passenger" depart="1475.29" departLane="best" from="723552318#2" to="52664437#1"/>
    <trip id="veh253" type="veh_passenger" depart="1481.14" departLane="best" from="723552318#0" to="-622415793#1"/>
    <trip id="veh254" type="veh_passenger" depart="1487.00" departLane="best" from="177566558#7" to="177566523#7"/>
    <trip id="veh255" type="veh_passenger" depart="1492.85" departLane="best" from="52663744#2" to="52514846#0"/>
    <trip id="veh256" type="veh_passenger" depart="1498.70" departLane="best" from="-692042225" to="366913700#4"/>