<?xml version="1.0" encoding="UTF-8"?>

<!-- generated on 2021-12-06 01:41:28 by Eclipse SUMO polyconvert Version 1.9.2
<configuration xmlns:xsi="http://www.w3.org/2001/XMLSchema-instance" xsi:noNamespaceSchemaLocation="http://sumo.dlr.de/xsd/polyconvertConfiguration.xsd">

    <input>
        <net-file value="osm.net.xml"/>
        <osm-files value="osm_bbox.osm.xml"/>
        <osm.keep-full-type value="true"/>
        <type-file value="C:\Program%20Files%20(x86)\Eclipse\Sumo\data\typemap\osmPolyconvert.typ.xml"/>
    </input>

    <output>
        <output-file value="osm.poly.xml"/>
    </output>

    <processing>
        <poi-layer-offset value="5"/>
    </processing>

    <report>
        <verbose value="true"/>
    </report>

</configuration>
-->

<additional xmlns:xsi="http://www.w3.org/2001/XMLSchema-instance" xsi:noNamespaceSchemaLocation="http://sumo.dlr.de/xsd/additional_file.xsd">
    <location netOffset="-279383.83,-2115362.39" convBoundary="-8707.31,-432.82,4111.50,2790.14" origBoundary="72.819690,19.115651,72.941679,19.143641" projParameter="+proj=utm +zone=43 +ellps=WGS84 +datum=WGS84 +units=m +no_defs"/>

    <poly id="156931858" type="landuse.residential" color="235,235,227" fill="1" layer="-3.00" shape="1969.980928,725.855864 1905.100904,729.428812 1900.086183,687.402806 1895.261992,614.505077 1885.035619,513.902386 1891.103727,502.038251 1891.767231,437.490170 1888.883641,409.179491 1886.538345,355.340858 1902.390214,359.082969 1921.335113,376.008581 1912.075625,461.109335 1917.063587,500.887988 1930.377704,519.563547 1950.823671,529.982978 1960.391427,536.291109 2002.242696,685.623198 1969.980928,725.855864"/>
    <poly id="177566574" type="landuse.residential" color="235,235,227" fill="1" layer="-3.00" shape="1554.230560,-93.980418 1591.507097,-33.980800 1636.058456,37.735295 1663.568429,146.403192 1716.944219,291.102390 1723.270987,355.788773 1680.877516,398.943823 1619.050727,344.396152 1597.594853,344.651677 1578.669667,423.069506 1685.409861,445.493050 1777.510183,506.788972 1753.995938,533.919081 1770.053159,576.145819 1754.401857,589.242371 1766.549146,620.399087 1817.888628,610.930285 1823.879784,639.480796 1804.039652,919.601654 1824.247690,920.667673 1818.279593,975.402488 1829.979828,976.093659 1841.185025,931.649097 1875.307257,928.430712 1869.378458,863.540284 1840.613110,868.555060 1857.856959,715.131888 1895.219241,704.689138 1879.970678,513.663685 1884.267995,495.376557 1886.708087,439.510136 1877.078038,327.108406 1788.108129,261.821888 1730.558427,233.275984 1717.312343,153.148644 1746.363735,79.216630 1728.095861,38.743462 1689.265383,1.991738 1627.859946,-25.024367 1612.636250,-56.410150 1593.098281,-85.076135 1575.070839,-153.044513 1478.195057,-323.344858 1460.697964,-369.717486 1463.982869,-426.158793 1435.107921,-432.823549 1427.535941,-404.952989 1425.046679,-377.142983 1426.038909,-340.682719 1446.730712,-279.699553 1536.435802,-124.726561 1554.230560,-93.980418"/>
    <poly id="353182374" type="building.yes" color="255,230,230" fill="1" layer="-1.00" shape="1681.785422,701.471785 1693.943036,701.670263 1694.094714,692.312386 1681.937094,692.113907 1681.785422,701.471785"/>
    <poly id="353182377" type="building.yes" color="255,230,230" fill="1" layer="-1.00" shape="1667.827206,674.677008 1682.304328,676.995880 1683.784876,667.876842 1669.307879,665.569039 1667.827206,674.677008"/>
    <poly id="353182379" type="building.yes" color="255,230,230" fill="1" layer="-1.00" shape="1755.336423,864.022832 1773.992389,867.310661 1776.193014,855.027464 1757.536905,851.728560 1755.336423,864.022832"/>
    <poly id="353182380" type="building.yes" color="255,230,230" fill="1" layer="-1.00" shape="1652.378268,726.845318 1664.653198,727.175245 1667.694572,697.122089 1656.545114,695.859756 1652.378268,726.845318"/>
    <poly id="353182383" type="building.yes" color="255,230,230" fill="1" layer="-1.00" shape="1679.445719,720.632535 1693.501616,722.048502 1694.481805,712.448242 1680.425769,711.021203 1679.445719,720.632535"/>
    <poly id="353182389" type="building.yes" color="255,230,230" fill="1" layer="-1.00" shape="1659.371938,669.883750 1667.868409,671.066956 1670.469091,652.611722 1661.983134,651.428389 1659.371938,669.883750"/>
    <poly id="353182392" type="building.yes" color="255,230,230" fill="1" layer="-1.00" shape="1609.031287,654.517076 1632.855239,661.374939 1638.183740,643.097583 1614.359768,636.239711 1609.031287,654.517076"/>
    <poly id="353182394" type="building.yes" color="255,230,230" fill="1" layer="-1.00" shape="1684.859393,674.153099 1695.949174,676.589822 1700.204538,657.450558 1689.114746,655.013831 1684.859393,674.153099"/>
    <poly id="353182403" type="building.yes" color="255,230,230" fill="1" layer="-1.00" shape="1622.418457,733.203316 1636.093671,733.582979 1636.257921,727.934161 1642.679692,728.112340 1642.909904,720.048981 1622.802515,719.502333 1622.418457,733.203316"/>
    <poly id="353193443" type="building.yes" color="255,230,230" fill="1" layer="-1.00" shape="1739.398448,685.937934 1747.363241,686.662469 1748.743725,671.787050 1745.635751,671.502951 1746.268788,664.564175 1732.983507,663.349363 1732.209769,671.729210 1739.753140,672.414470 1739.175334,678.688253 1743.642428,679.100112 1743.391134,681.860098 1739.798466,681.526409 1739.398448,685.937934"/>
    <poly id="353193446" type="building.yes" color="255,230,230" fill="1" layer="-1.00" shape="1766.838075,787.022217 1776.762639,787.944877 1776.836672,787.091431 1783.452960,787.699160 1783.379058,788.563677 1794.188561,789.564391 1795.039116,780.563586 1789.265680,780.034399 1789.144568,781.353441 1783.423744,780.823629 1783.516978,779.814943 1767.650349,778.342961 1766.838075,787.022217"/>
    <poly id="353193485" type="building.yes" color="255,230,230" fill="1" layer="-1.00" shape="1762.797806,762.345932 1772.875214,762.846026 1772.626197,767.565776 1776.311705,767.743354 1776.243337,769.072840 1789.890631,769.762969 1790.156217,764.666565 1793.283769,764.828642 1793.386454,762.845484 1798.209313,763.087035 1799.670573,734.658207 1790.572405,734.201804 1789.956823,746.145034 1793.358095,746.314926 1793.118014,750.901702 1790.169605,750.759637 1789.605829,761.750037 1774.831832,761.006884 1776.308303,732.090690 1765.599001,731.553825 1765.454776,734.467548 1766.792189,734.540207 1766.399738,742.240105 1763.840924,742.115552 1763.446629,749.660460 1765.131416,749.740056 1764.839539,755.279665 1763.165144,755.188873 1762.797806,762.345932"/>
    <poly id="353193492" type="building.yes" color="255,230,230" fill="1" layer="-1.00" shape="1732.859097,747.489030 1747.405965,748.600238 1748.299584,737.030151 1733.763230,735.918815 1732.859097,747.489030"/>
    <poly id="353193500" type="building.yes" color="255,230,230" fill="1" layer="-1.00" shape="1675.139387,784.094734 1682.068217,785.318753 1683.607558,776.719410 1676.678857,775.506461 1675.139387,784.094734"/>
    <poly id="353193505" type="building.yes" color="255,230,230" fill="1" layer="-1.00" shape="1736.245867,712.847864 1752.246847,714.107853 1753.583750,697.339595 1737.582888,696.090675 1736.245867,712.847864"/>
    <poly id="353193509" type="building.yes" color="255,230,230" fill="1" layer="-1.00" shape="1711.882059,767.591358 1725.889104,768.443241 1726.532562,757.961211 1712.536032,757.109202 1711.882059,767.591358"/>
    <poly id="353193510" type="building.yes" color="255,230,230" fill="1" layer="-1.00" shape="1706.594138,789.278468 1722.508899,790.373367 1723.236533,779.890334 1707.321763,778.795434 1706.594138,789.278468"/>
    <poly id="353193518" type="building.yes" color="255,230,230" fill="1" layer="-1.00" shape="1651.864732,776.510595 1654.729487,776.697923 1654.452996,780.875464 1668.534355,781.781779 1669.200933,771.476624 1652.265465,770.393926 1651.864732,776.510595"/>
    <poly id="353193521" type="building.yes" color="255,230,230" fill="1" layer="-1.00" shape="1761.466112,811.378722 1767.078936,811.677294 1767.034626,812.375374 1769.667351,812.521192 1769.701007,811.812166 1773.744797,812.029766 1774.357349,800.717688 1762.068134,800.066768 1761.466112,811.378722"/>
    <poly id="353193523" type="building.yes" color="255,230,230" fill="1" layer="-1.00" shape="1781.650621,825.488121 1796.867319,827.178219 1798.486427,812.897868 1790.762128,812.037587 1790.247939,816.583337 1785.969494,816.102792 1786.502751,811.390731 1783.288655,811.030385 1781.650621,825.488121"/>
    <poly id="353203904" type="building.yes" color="255,230,230" fill="1" layer="-1.00" shape="1496.345329,578.165414 1508.637832,573.778246 1513.741794,587.889950 1523.969913,584.247089 1518.593791,569.374638 1530.488159,565.136169 1527.484325,556.812386 1513.242514,561.887105 1514.896830,566.473462 1509.227309,568.489742 1507.507877,563.738076 1493.004197,568.915582 1496.345329,578.165414"/>
    <poly id="353203912" type="building.yes" color="255,230,230" fill="1" layer="-1.00" shape="1955.556893,593.481431 1969.324203,589.209910 1963.570527,570.876243 1961.620302,571.486263 1960.526574,568.011509 1961.742851,567.631662 1955.015527,546.187198 1953.788726,546.567172 1952.596474,542.772494 1953.823275,542.392521 1949.524509,528.702974 1941.586929,531.155759 1940.405459,527.383098 1935.309503,528.960601 1955.556893,593.481431"/>
    <poly id="353203929" type="building.yes" color="255,230,230" fill="1" layer="-1.00" shape="1911.986847,654.498433 1915.578065,654.710379 1915.079279,663.208733 1929.686292,664.064715 1930.090667,657.361190 1933.460647,657.553626 1934.258748,644.135631 1930.783409,643.933375 1931.045100,639.390637 1932.245594,639.453865 1932.587637,633.703296 1925.521074,633.289091 1925.616676,631.593899 1920.582678,631.299461 1920.723124,628.950472 1910.644603,628.361725 1910.041406,638.699316 1912.905912,638.864545 1911.986847,654.498433"/>
    <poly id="353203947" type="building.yes" color="255,230,230" fill="1" layer="-1.00" shape="1559.037443,648.834645 1567.618012,650.891514 1572.362541,631.303488 1563.781964,629.246616 1559.037443,648.834645"/>
    <poly id="353203976" type="building.yes" color="255,230,230" fill="1" layer="-1.00" shape="1979.629354,669.040114 1993.950625,665.337775 1977.962993,604.132234 1961.470348,608.436158 1979.629354,669.040114"/>
    <poly id="353204016" type="building.yes" color="255,230,230" fill="1" layer="-1.00" shape="1541.164983,645.083706 1555.490017,648.766186 1557.995917,639.147735 1543.681398,635.465127 1541.164983,645.083706"/>
    <poly id="353204033" type="building.yes" color="255,230,230" fill="1" layer="-1.00" shape="1528.320436,594.304246 1541.505876,596.848781 1543.341630,587.515120 1537.751589,586.485566 1530.145661,584.970709 1528.320436,594.304246"/>
    <poly id="353204036" type="building.yes" color="255,230,230" fill="1" layer="-1.00" shape="1753.183624,584.152556 1762.148783,579.616940 1758.097543,571.704199 1760.650037,570.411579 1756.555518,562.399704 1745.037857,568.227943 1753.183624,584.152556"/>
    <poly id="353204037" type="building.yes" color="255,230,230" fill="1" layer="-1.00" shape="1540.357089,644.406850 1542.893158,636.437807 1529.125087,630.921772 1518.135546,619.238593 1513.856964,624.050659 1524.979930,637.215932 1540.357089,644.406850"/>
    <poly id="353204050" type="building.yes" color="255,230,230" fill="1" layer="-1.00" shape="1708.744556,632.236968 1715.979341,631.752233 1715.787894,628.931084 1720.141472,628.646736 1720.322396,631.468011 1723.655943,631.251170 1722.965946,621.028606 1708.065205,622.025350 1708.744556,632.236968"/>
    <poly id="353785590" type="building.apartments" color="255,230,230" fill="1" layer="-1.00" shape="1515.934758,969.724825 1525.505881,964.838601 1519.570166,953.338801 1528.942560,948.554599 1524.482716,939.916003 1514.806884,944.847763 1507.621397,930.915884 1498.154823,935.745507 1505.641673,950.238478 1496.007807,955.158676 1499.875208,962.652810 1509.686895,957.641916 1515.934758,969.724825"/>
    <poly id="353785596" type="building.yes" color="255,230,230" fill="1" layer="-1.00" shape="1610.063421,588.314704 1620.557673,590.227012 1618.906937,599.193073 1630.287057,601.260919 1631.127288,596.700206 1658.443963,601.678515 1660.935088,588.162820 1653.710363,586.842675 1654.619777,581.904683 1643.650954,579.909429 1645.628516,569.223277 1634.849487,567.258984 1633.426126,574.993312 1620.347894,572.613518 1619.438489,577.551512 1613.268521,576.429193 1612.784164,579.059091 1611.803319,578.882545 1610.063421,588.314704"/>
    <poly id="354010754" type="building.bungalow" color="255,230,230" fill="1" layer="-1.00" shape="1287.385663,1009.276607 1288.077148,1020.484601 1296.731912,1019.949525 1296.052142,1008.841042 1304.760712,1008.404979 1304.254104,998.578818 1276.361545,999.985606 1276.857514,1009.800822 1287.385663,1009.276607"/>
    <poly id="354026114" type="building.yes" color="255,230,230" fill="1" layer="-1.00" shape="1777.774689,885.346656 1793.783136,886.362985 1794.457001,875.780948 1778.459067,874.764492 1777.774689,885.346656"/>
    <poly id="354067601" type="building.yes" color="255,230,230" fill="1" layer="-1.00" shape="1676.995034,764.939745 1689.883009,765.494903 1691.149951,736.669760 1678.261955,736.114599 1676.995034,764.939745"/>
    <poly id="354067609" type="building.yes" color="255,230,230" fill="1" layer="-1.00" shape="1736.716038,642.721580 1751.735409,641.967035 1751.141805,630.115701 1736.122292,630.859175 1736.716038,642.721580"/>
    <poly id="354067613" type="building.yes" color="255,230,230" fill="1" layer="-1.00" shape="1715.722273,672.921999 1729.900781,674.026513 1730.797958,662.755334 1716.619310,661.639747 1715.722273,672.921999"/>
    <poly id="354067615" type="building.yes" color="255,230,230" fill="1" layer="-1.00" shape="1730.374739,769.530282 1741.717085,770.203528 1742.287311,760.641370 1730.944959,759.968123 1730.374739,769.530282"/>
    <poly id="355017976" type="building.yes" color="255,230,230" fill="1" layer="-1.00" shape="1794.407036,661.134567 1810.716991,660.940467 1810.510417,643.581614 1794.200447,643.775712 1794.407036,661.134567"/>
    <poly id="355057949" type="building.yes" color="255,230,230" fill="1" layer="-1.00" shape="1468.039885,571.471844 1471.245853,578.209874 1488.325488,570.178218 1485.119526,563.440186 1468.039885,571.471844"/>
    <poly id="355057953" type="building.yes" color="255,230,230" fill="1" layer="-1.00" shape="1757.916491,845.601076 1770.520427,846.170738 1771.020126,835.103592 1758.416182,834.533929 1757.916491,845.601076"/>
    <poly id="355057956" type="building.office" color="255,230,230" fill="1" layer="-1.00" shape="1684.518457,965.446579 1695.744771,959.920690 1685.793058,939.920874 1674.566733,945.446768 1684.518457,965.446579"/>
    <poly id="355057959" type="building.yes" color="255,230,230" fill="1" layer="-1.00" shape="1723.485801,822.925290 1740.294018,823.932057 1741.287866,807.522191 1724.479634,806.515422 1723.485801,822.925290"/>
    <poly id="355057960" type="building.yes" color="255,230,230" fill="1" layer="-1.00" shape="1704.032710,804.843367 1720.433974,805.257061 1720.712543,794.181471 1704.311401,793.778847 1704.032710,804.843367"/>
    <poly id="483432031" type="landuse.military" color="153,153,92" fill="1" layer="-3.00" shape="1974.471999,1339.703826 1922.672016,1350.982674 1881.876129,1233.725628 1869.238416,1186.962822 1849.874065,1116.164672 1841.872303,1060.145648 1843.095339,1044.419545 1834.918980,1045.358345 1832.078379,1091.408499 1830.426542,1111.778989 1826.166797,1164.146162 1824.291517,1267.417406 1822.349691,1411.944745 1829.218908,1467.412567 1818.352218,1574.721546 1809.698209,1630.097379 1804.398996,1682.631995 1794.482305,1726.518789 1790.241963,1726.569282 1786.309449,1846.141370 1785.590624,1881.215844 1800.345347,1911.344967 1809.169396,1964.829724 1812.256845,2010.244669 1804.191034,2044.288336 1801.661823,2092.582534 1920.489787,2092.562855 2004.957516,2098.577454 2055.465555,2097.411874 2169.225298,2115.446506 2194.932087,2087.892059 2211.039347,2101.740203 2197.143080,2119.853523 2287.487689,2110.375885 2413.525251,2091.008004 2500.440124,2073.611235 2549.481839,2056.188247 2562.172368,2042.850607 2574.949238,2026.145995 2593.203838,1993.952782 2643.556810,1955.754099 2677.316044,1946.938763 2697.753314,1956.794235 2791.037200,1920.899241 2722.611500,1767.961707 2769.796893,1748.324849 2384.908203,997.012273 2368.006469,951.761412 2364.656420,908.032654 2361.436382,712.136699 2360.681689,696.434165 2352.472954,670.722243 2342.713727,656.244898 2331.336446,649.083365 2307.034289,647.124230 2270.529219,654.444627 2161.160925,676.360238 2101.553377,691.451397 2064.459870,705.920815 2039.873643,726.984623 2011.657721,775.572958 1944.792647,992.697896 1912.572112,1023.950654 1974.471999,1339.703826"/>
    <poly id="52511372" type="building.apartments" color="255,230,230" fill="1" layer="-1.00" shape="1274.918479,592.331716 1266.409865,589.255467 1262.822519,599.075104 1252.707468,595.431193 1249.140648,605.206299 1259.488249,608.936012 1256.002836,618.477628 1264.521961,621.553746 1267.935832,612.190142 1277.776094,615.737688 1281.343059,605.973658 1271.259716,602.340432 1274.918479,592.331716"/>
    <poly id="52511373" type="building.apartments" color="255,230,230" fill="1" layer="-1.00" shape="1327.988527,603.546081 1319.479931,600.469808 1315.892560,610.289432 1305.777529,606.645494 1302.210552,616.409517 1312.568656,620.139132 1309.083351,629.691806 1317.602460,632.767948 1321.016354,623.404356 1330.845942,626.940983 1334.412931,617.176967 1324.340262,613.554658 1327.988527,603.546081"/>
    <poly id="52511384" type="building.dormitory" color="255,230,230" fill="1" layer="-1.00" shape="1412.255622,1089.057888 1363.116028,1091.382270 1358.779417,978.374742 1405.316626,976.657173 1412.255622,1089.057888"/>
    <poly id="52511399" type="building.school" color="255,230,230" fill="1" layer="-1.00" shape="1616.087095,880.207882 1623.534544,894.933880 1647.972923,882.717946 1657.640440,901.824279 1644.626103,908.323700 1641.177306,901.511038 1632.358068,905.912130 1637.606836,916.290770 1628.473911,920.861685 1626.296690,916.547286 1620.009248,919.689203 1622.132540,923.893522 1614.746710,927.591067 1611.362490,920.899435 1614.281231,919.436341 1612.696850,916.299615 1606.963932,919.169197 1607.901671,921.029241 1587.428277,931.260348 1582.826127,922.158400 1606.333491,910.418532 1596.105302,890.189527 1616.087095,880.207882"/>
    <poly id="52511400" type="building.apartments" color="255,230,230" fill="1" layer="-1.00" shape="1533.114654,1012.524845 1548.143362,1012.578265 1548.053173,1017.373640 1557.241042,1017.419166 1557.394660,998.516943 1562.921016,998.628248 1562.947059,991.098783 1540.508075,990.923282 1540.489741,985.852393 1533.175235,985.817766 1533.135572,1005.449404 1527.779158,1005.468950 1527.758243,1012.544392 1533.114654,1012.524845"/>
    <poly id="617989951" type="amenity.university" color="237,199,199" fill="0" layer="-1.00" shape="1749.192056,2166.705329 1751.210133,2134.704525 1757.826021,2108.816218 1754.474381,2065.087398 1722.967279,2073.877670 1716.064229,1967.898472 1752.105221,1723.934280 1778.833069,1360.555996 1792.826686,1256.011066 1800.667148,1036.786405 1787.873122,1029.077385 1757.923128,986.717098 1706.892396,913.317605 1463.255220,637.132175 1449.809947,626.031916 1439.701281,615.855181 1154.232275,538.033773 966.474309,487.239242 937.931416,484.491033 722.070788,515.416282 696.117915,516.280275 665.242150,507.669905 626.003395,484.422345"/>
    <poly id="622286336" type="building.apartments" color="255,230,230" fill="1" layer="-1.00" shape="1267.893202,823.859850 1276.018016,823.884712 1276.086755,798.771910 1267.972584,798.757992 1267.893202,823.859850"/>
    <poly id="622286712" type="building.bungalow" color="255,230,230" fill="1" layer="-1.00" shape="1288.145326,665.395057 1283.940721,653.464984 1298.215171,648.489334 1302.419768,660.419409 1288.145326,665.395057"/>
    <poly id="622286713" type="building.bungalow" color="255,230,230" fill="1" layer="-1.00" shape="1297.773681,691.765147 1292.469331,676.747946 1306.680761,671.784126 1311.985100,686.801329 1297.773681,691.765147"/>
    <poly id="622286714" type="building.bungalow" color="255,230,230" fill="1" layer="-1.00" shape="1303.897949,722.583811 1299.179175,707.249601 1315.400918,702.306094 1320.119679,717.640307 1303.897949,722.583811"/>
    <poly id="622286715" type="building.bungalow" color="255,230,230" fill="1" layer="-1.00" shape="1308.090867,749.417341 1303.563794,735.154857 1316.711783,731.034147 1321.228324,745.296758 1308.090867,749.417341"/>
    <poly id="622291397" type="building.bungalow" color="255,230,230" fill="0" layer="-1.00" shape="1309.415992,916.969733 1312.670410,921.592350 1295.605307,933.455061 1292.395354,929.031217"/>
    <poly id="622291398" type="building.bungalow" color="255,230,230" fill="1" layer="-1.00" shape="1286.402284,920.676693 1305.937968,906.835778 1311.931033,915.190308 1309.415992,916.969733 1292.395354,929.031217 1286.402284,920.676693"/>
    <poly id="622291400" type="building.bungalow" color="255,230,230" fill="1" layer="-1.00" shape="1293.485329,874.841438 1298.299764,880.552673 1304.489485,875.396648 1309.709449,881.579157 1318.785632,874.019233 1308.751237,862.125482 1293.485329,874.841438"/>
    <poly id="622291402" type="building.bungalow" color="255,230,230" fill="1" layer="-1.00" shape="1313.756245,837.053453 1325.051963,824.993850 1334.991143,834.198178 1323.705948,846.257648 1313.756245,837.053453"/>
    <poly id="622291404" type="building.bungalow" color="255,230,230" fill="1" layer="-1.00" shape="1333.209615,801.301482 1325.280208,794.719462 1334.235558,784.082894 1344.397269,792.531658 1335.452441,803.168095 1333.209615,801.301482"/>
    <poly id="622291405" type="building.bungalow" color="255,230,230" fill="1" layer="-1.00" shape="1366.459717,757.579042 1356.279160,748.432935 1346.306923,759.402713 1354.157832,766.461788 1356.889740,763.450760 1359.219388,765.537787 1366.459717,757.579042"/>
    <poly id="622291407" type="building.bungalow" color="255,230,230" fill="1" layer="-1.00" shape="1403.305066,683.497878 1396.066794,675.744995 1394.640646,677.057457 1392.945778,675.250736 1383.119266,684.325386 1390.666654,692.406748 1394.185000,689.153833 1395.570752,690.632071 1403.305066,683.497878"/>
    <poly id="622291409" type="building.bungalow" color="255,230,230" fill="1" layer="-1.00" shape="1405.523038,647.087882 1402.728196,649.236011 1400.718801,646.646907 1398.455727,648.379021 1392.812688,641.138588 1389.725853,643.511646 1387.053892,640.077876 1397.284288,632.216368 1399.560841,635.145528 1402.574547,632.817633 1410.622650,643.173927 1405.523038,647.087882"/>
    <poly id="622297224" type="building.bungalow" color="255,230,230" fill="1" layer="-1.00" shape="1386.022679,717.762312 1375.842113,708.616194 1365.869842,719.585957 1373.720758,726.645041 1376.452675,723.634017 1378.782324,725.721047 1386.022679,717.762312"/>
    <poly id="622413778" type="building.apartments" color="255,230,230" fill="1" layer="-1.00" shape="1354.345169,933.064419 1375.060897,944.044670 1382.082191,930.962062 1361.355932,919.981927 1354.345169,933.064419"/>
    <poly id="622413779" type="building.apartments" color="255,230,230" fill="1" layer="-1.00" shape="1375.410327,886.863160 1397.777615,886.308559 1397.387295,869.461179 1375.490065,869.722294 1375.410327,886.863160"/>
    <poly id="622413781" type="building.apartments" color="255,230,230" fill="1" layer="-1.00" shape="1413.421260,802.880525 1430.193143,817.606016 1440.204048,806.347945 1423.432164,791.622444 1413.421260,802.880525"/>
    <poly id="622413782" type="building.apartments" color="255,230,230" fill="1" layer="-1.00" shape="1441.613924,756.882285 1459.513413,754.078001 1456.565724,735.456329 1438.666084,738.249544 1441.613924,756.882285"/>
    <poly id="622413786" type="building.apartments" color="255,230,230" fill="1" layer="-1.00" shape="1421.594033,921.677372 1432.766648,931.952121 1441.837760,922.200007 1430.665146,911.925252 1421.594033,921.677372"/>
    <poly id="622413787" type="building.apartments" color="255,230,230" fill="1" layer="-1.00" shape="1451.857166,871.934149 1469.046440,859.881893 1460.547501,847.892261 1443.347696,859.944650 1451.857166,871.934149"/>
    <poly id="622413789" type="building.apartments" color="255,230,230" fill="1" layer="-1.00" shape="1470.912358,802.759853 1485.225950,812.554306 1494.909668,798.565314 1480.585682,788.782048 1470.912358,802.759853"/>
    <poly id="622413791" type="building.apartments" color="255,230,230" fill="1" layer="-1.00" shape="1490.593202,745.447633 1503.650650,757.571183 1516.080033,744.368835 1503.022454,732.234205 1490.593202,745.447633"/>
    <poly id="622415799" type="building.apartments" color="255,230,230" fill="1" layer="-1.00" shape="1483.807988,684.752715 1476.926468,691.035212 1462.522463,675.428881 1469.393462,669.146504 1483.807988,684.752715"/>
    <poly id="622525941" type="building.apartments" color="255,230,230" fill="1" layer="-1.00" shape="1522.091483,768.401564 1523.427471,754.224191 1545.194289,756.256784 1543.858153,770.423083 1522.091483,768.401564"/>
    <poly id="622525943" type="building.apartments" color="255,230,230" fill="1" layer="-1.00" shape="1535.430711,801.525900 1546.276046,807.298197 1556.067787,789.122631 1545.232968,783.350202 1535.430711,801.525900"/>
    <poly id="622525945" type="building.apartments" color="255,230,230" fill="1" layer="-1.00" shape="1551.686487,754.396791 1564.988439,775.563521 1573.732330,770.133578 1560.440908,748.966717 1551.686487,754.396791"/>
    <poly id="622525946" type="building.apartments" color="255,230,230" fill="1" layer="-1.00" shape="1595.646012,800.398795 1595.909592,796.022104 1596.163442,791.711963 1570.192694,790.150147 1569.664884,798.848177 1595.646012,800.398795"/>
    <poly id="622525949" type="building.apartments" color="255,230,230" fill="1" layer="-1.00" shape="1624.438725,857.753465 1624.790493,846.643778 1647.793660,847.344152 1647.431382,859.339744 1624.417707,858.639498 1624.438725,857.753465"/>
    <poly id="622525951" type="building.apartments" color="255,230,230" fill="1" layer="-1.00" shape="1653.059325,873.279146 1667.145255,894.015846 1675.262643,889.003083 1661.611567,868.549078 1653.059325,873.279146"/>
    <poly id="622525953" type="building.apartments" color="255,230,230" fill="1" layer="-1.00" shape="1674.009402,916.322243 1696.362301,916.332858 1696.369876,904.596156 1674.016963,904.585540 1674.009402,916.322243"/>
    <poly id="622528572" type="building.apartments" color="255,230,230" fill="1" layer="-1.00" shape="1531.345902,883.531635 1532.326251,873.953497 1554.274051,876.172157 1553.283169,885.750418 1531.345902,883.531635"/>
    <poly id="622528574" type="building.apartments" color="255,230,230" fill="1" layer="-1.00" shape="1527.518541,855.553288 1518.697178,837.699164 1526.562743,834.516262 1534.114808,851.831901 1527.518541,855.553288"/>
    <poly id="622533040" type="building.apartments" color="255,230,230" fill="1" layer="-1.00" shape="1611.893769,833.864978 1620.691045,828.500854 1609.165595,809.804195 1600.368312,815.168324 1611.893769,833.864978"/>
    <poly id="622533042" type="building.apartments" color="255,230,230" fill="1" layer="-1.00" shape="1605.077500,873.009183 1612.323020,865.482298 1593.801229,847.843353 1585.121020,856.848879 1603.653334,874.487690 1605.077500,873.009183"/>
    <poly id="622533045" type="building.apartments" color="255,230,230" fill="1" layer="-1.00" shape="1505.888326,884.399711 1496.190656,876.022847 1509.199669,861.130587 1518.897339,869.507458 1505.888326,884.399711"/>
    <poly id="622540260" type="building.apartments" color="255,230,230" fill="1" layer="-1.00" shape="1627.970614,990.811277 1647.545308,983.768659 1643.617634,972.975680 1624.043060,980.029372 1627.970614,990.811277"/>
    <poly id="622540261" type="building.apartments" color="255,230,230" fill="1" layer="-1.00" shape="1657.564113,981.124847 1652.476635,971.032162 1667.719538,963.443260 1672.807008,973.535949 1657.564113,981.124847"/>
    <poly id="622540262" type="building.apartments" color="255,230,230" fill="1" layer="-1.00" shape="1650.942001,946.447836 1658.016350,942.222545 1666.228952,955.810069 1659.154607,960.035357 1650.942001,946.447836"/>
    <poly id="622540263" type="building.apartments" color="255,230,230" fill="1" layer="-1.00" shape="1621.633052,972.074966 1610.348682,950.640589 1619.845519,945.699942 1631.129880,967.134324 1621.633052,972.074966"/>
    <poly id="622791282" type="leisure.playground" color="207,245,201" fill="1" layer="-2.00" shape="1540.068764,839.249269 1550.223248,847.986099 1559.516433,855.980280 1572.483551,841.099644 1577.622660,835.203323 1558.174858,818.461222 1540.068764,839.249269"/>
    <poly id="723512525" type="amenity.school" color="237,199,199" fill="1" layer="-1.00" shape="1717.871461,1100.906232 1722.616110,1096.354389 1725.910972,993.907682 1722.439197,986.929198 1702.849156,976.776672 1691.832731,976.066366 1681.414202,978.725991 1658.736683,993.866147 1641.261324,996.034089 1592.423707,996.339075 1581.814980,1005.998709 1534.595896,1093.545269 1540.309348,1099.644443 1717.871461,1100.906232"/>