<?xml version="1.0" encoding="UTF-8"?>

<!-- generated on 2021-12-05 23:18:44 by Eclipse SUMO netconvert Version 1.9.2
<configuration xmlns:xsi="http://www.w3.org/2001/XMLSchema-instance" xsi:noNamespaceSchemaLocation="http://sumo.dlr.de/xsd/netconvertConfiguration.xsd">

    <input>
        <type-files value="C:\Program%20Files%20(x86)\Eclipse\Sumo\data\typemap\osmNetconvert.typ.xml"/>
        <osm-files value="osm_bbox.osm.xml"/>
    </input>

    <output>
        <output-file value="osm.net.xml"/>
        <output.street-names value="true"/>
        <output.original-names value="true"/>
    </output>

    <projection>
        <proj.utm value="true"/>
    </projection>

    <processing>
        <geometry.remove value="true"/>
        <roundabouts.guess value="true"/>
        <lefthand value="true"/>
    </processing>

    <tls_building>
        <tls.discard-simple value="true"/>
        <tls.join value="true"/>
        <tls.guess-signals value="true"/>
        <tls.default-type value="actuated"/>
    </tls_building>

    <ramp_guessing>
        <ramps.guess value="true"/>
    </ramp_guessing>

    <junctions>
        <junctions.join value="true"/>
        <junctions.corner-detail value="5"/>
    </junctions>

    <report>
        <verbose value="true"/>
        <aggregate-warnings value="5"/>
    </report>

</configuration>
-->

<net version="1.9" junctionCornerDetail="5" lefthand="true" limitTurnSpeed="5.50" xmlns:xsi="http://www.w3.org/2001/XMLSchema-instance" xsi:noNamespaceSchemaLocation="http://sumo.dlr.de/xsd/net_file.xsd">

    <location netOffset="-270676.52,-2115229.82" convBoundary="0.00,-0.00,12818.80,2922.71" origBoundary="72.819690,19.118451,72.941679,19.143641" projParameter="+proj=utm +zone=43 +ellps=WGS84 +datum=WGS84 +units=m +no_defs"/>

    <type id="highway.bridleway" priority="1" numLanes="1" speed="2.78" allow="pedestrian" oneway="1" width="2.00"/>
    <type id="highway.bus_guideway" priority="1" numLanes="1" speed="27.78" allow="bus" oneway="1"/>
    <type id="highway.cycleway" priority="1" numLanes="1" speed="8.33" allow="bicycle" oneway="0" width="1.00"/>
    <type id="highway.footway" priority="1" numLanes="1" speed="2.78" allow="pedestrian" oneway="1" width="2.00"/>
    <type id="highway.ford" priority="1" numLanes="1" speed="2.78" allow="army" oneway="0"/>
    <type id="highway.living_street" priority="2" numLanes="1" speed="2.78" disallow="tram rail_urban rail rail_electric rail_fast ship" oneway="0"/>
    <type id="highway.motorway" priority="14" numLanes="2" speed="39.44" allow="private emergency authority army vip passenger hov taxi bus coach delivery truck trailer motorcycle evehicle custom1 custom2" oneway="1"/>
    <type id="highway.motorway_link" priority="9" numLanes="1" speed="22.22" allow="private emergency authority army vip passenger hov taxi bus coach delivery truck trailer motorcycle evehicle custom1 custom2" oneway="1"/>
    <type id="highway.path" priority="1" numLanes="1" speed="2.78" allow="pedestrian bicycle" oneway="0" width="2.00"/>
    <type id="highway.pedestrian" priority="1" numLanes="1" speed="2.78" allow="pedestrian" oneway="1" width="2.00"/>
    <type id="highway.primary" priority="12" numLanes="2" speed="27.78" disallow="tram rail_urban rail rail_electric rail_fast ship" oneway="0"/>
    <type id="highway.primary_link" priority="7" numLanes="1" speed="22.22" disallow="tram rail_urban rail rail_electric rail_fast ship" oneway="0"/>
    <type id="highway.raceway" priority="15" numLanes="2" speed="83.33" allow="vip" oneway="0"/>
    <type id="highway.residential" priority="3" numLanes="1" speed="13.89" disallow="tram rail_urban rail rail_electric rail_fast ship" oneway="0"/>
    <type id="highway.secondary" priority="11" numLanes="1" speed="27.78" disallow="tram rail_urban rail rail_electric rail_fast ship" oneway="0"/>
    <type id="highway.secondary_link" priority="6" numLanes="1" speed="22.22" disallow="tram rail_urban rail rail_electric rail_fast ship" oneway="0"/>
    <type id="highway.service" priority="1" numLanes="1" speed="5.56" allow="pedestrian delivery bicycle" oneway="0"/>
    <type id="highway.stairs" priority="1" numLanes="1" speed="1.39" allow="pedestrian" oneway="1" width="2.00"/>
    <type id="highway.step" priority="1" numLanes="1" speed="1.39" allow="pedestrian" oneway="1" width="2.00"/>
    <type id="highway.steps" priority="1" numLanes="1" speed="1.39" allow="pedestrian" oneway="1" width="2.00"/>
    <type id="highway.tertiary" priority="10" numLanes="1" speed="22.22" disallow="tram rail_urban rail rail_electric rail_fast ship" oneway="0"/>
    <type id="highway.tertiary_link" priority="5" numLanes="1" speed="22.22" disallow="tram rail_urban rail rail_electric rail_fast ship" oneway="0"/>
    <type id="highway.track" priority="1" numLanes="1" speed="5.56" allow="pedestrian motorcycle moped bicycle" oneway="0"/>
    <type id="highway.trunk" priority="13" numLanes="2" speed="27.78" disallow="pedestrian bicycle tram rail_urban rail rail_electric rail_fast ship" oneway="0"/>
    <type id="highway.trunk_link" priority="8" numLanes="1" speed="22.22" disallow="pedestrian bicycle tram rail_urban rail rail_electric rail_fast ship" oneway="0"/>
    <type id="highway.unclassified" priority="4" numLanes="1" speed="13.89" disallow="tram rail_urban rail rail_electric rail_fast ship" oneway="0"/>
    <type id="highway.unsurfaced" priority="1" numLanes="1" speed="8.33" disallow="tram rail_urban rail rail_electric rail_fast ship" oneway="0"/>
    <type id="railway.highspeed" priority="21" numLanes="1" speed="69.44" allow="rail_fast" oneway="1"/>
    <type id="railway.light_rail" priority="19" numLanes="1" speed="27.78" allow="rail_urban" oneway="1"/>
    <type id="railway.preserved" priority="16" numLanes="1" speed="27.78" allow="rail" oneway="1"/>
    <type id="railway.rail" priority="20" numLanes="1" speed="44.44" allow="rail" oneway="1"/>
    <type id="railway.subway" priority="18" numLanes="1" speed="27.78" allow="rail_urban" oneway="1"/>
    <type id="railway.tram" priority="17" numLanes="1" speed="13.89" allow="tram" oneway="1"/>

    <edge id=":1209663102_0" function="internal">
        <lane id=":1209663102_0_0" index="0" disallow="tram rail_urban rail rail_electric rail_fast ship" speed="5.51" length="8.44" shape="10294.16,843.48 10293.75,846.21 10292.77,847.77 10291.23,848.16 10289.12,847.39"/>
    </edge>
    <edge id=":1209663102_1" function="internal">
        <lane id=":1209663102_1_0" index="0" disallow="tram rail_urban rail rail_electric rail_fast ship" speed="3.65" length="4.67" shape="10294.16,843.48 10294.91,844.71 10295.70,845.14 10296.51,844.77 10297.36,843.61"/>
    </edge>
    <edge id=":1209663102_2" function="internal">
        <lane id=":1209663102_2_0" index="0" disallow="tram rail_urban rail rail_electric rail_fast ship" speed="12.10" length="13.22" shape="10300.11,856.14 10298.24,853.32 10297.40,850.36 10297.23,847.15 10297.36,843.61"/>
    </edge>
    <edge id=":1209663102_3" function="internal">
        <lane id=":1209663102_3_0" index="0" disallow="tram rail_urban rail rail_electric rail_fast ship" speed="22.22" length="14.12" shape="10300.11,856.14 10297.59,853.56 10294.99,851.30 10292.20,849.28 10289.12,847.39"/>
    </edge>
    <edge id=":1646887550_0" function="internal">
        <lane id=":1646887550_0_0" index="0" disallow="tram rail_urban rail rail_electric rail_fast ship" speed="3.65" length="4.67" shape="10959.11,1.33 10959.66,-0.01 10959.55,-0.89 10958.77,-1.33 10957.33,-1.33"/>
    </edge>
    <edge id=":1646887643_0" function="internal">
        <lane id=":1646887643_0_0" index="0" disallow="tram rail_urban rail rail_electric rail_fast ship" speed="6.30" length="9.04" shape="10826.68,777.37 10824.17,777.50 10822.30,776.77 10821.07,775.18 10820.48,772.73"/>
    </edge>
    <edge id=":1646887643_1" function="internal">
        <lane id=":1646887643_1_0" index="0" disallow="tram rail_urban rail rail_electric rail_fast ship" speed="22.22" length="14.27" shape="10826.68,777.37 10823.12,778.12 10819.72,778.94 10816.35,779.89 10812.89,780.99"/>
    </edge>
    <edge id=":1646887643_2" function="internal">
        <lane id=":1646887643_2_0" index="0" disallow="tram rail_urban rail rail_electric rail_fast ship" speed="7.42" length="9.91" shape="10817.29,773.03 10817.24,775.88 10816.48,778.16 10815.03,779.86 10812.89,780.99"/>
    </edge>
    <edge id=":1646887643_3" function="internal">
        <lane id=":1646887643_3_0" index="0" disallow="tram rail_urban rail rail_electric rail_fast ship" speed="3.65" length="4.67" shape="10817.29,773.03 10818.20,774.15 10819.04,774.48 10819.79,774.00 10820.48,772.73"/>
    </edge>
    <edge id=":177566523#2-AddedOnRampNode_0" function="internal">
        <lane id=":177566523#2-AddedOnRampNode_0_0" index="0" disallow="tram rail_urban rail rail_electric rail_fast ship" speed="27.78" length="8.00" shape="10658.66,986.34 10656.21,993.96"/>
        <lane id=":177566523#2-AddedOnRampNode_0_1" index="1" disallow="tram rail_urban rail rail_electric rail_fast ship" speed="27.78" length="8.00" shape="10661.71,987.32 10659.26,994.94"/>
        <lane id=":177566523#2-AddedOnRampNode_0_2" index="2" disallow="tram rail_urban rail rail_electric rail_fast ship" speed="27.78" length="8.00" shape="10664.75,988.30 10662.30,995.92"/>
    </edge>
    <edge id=":1879817526_0" function="internal">
        <lane id=":1879817526_0_0" index="0" disallow="tram rail_urban rail rail_electric rail_fast ship" speed="6.64" length="9.52" shape="10121.35,695.76 10120.27,698.18 10118.70,699.67 10116.64,700.23 10114.09,699.85"/>
    </edge>
    <edge id=":1879817526_1" function="internal">
        <lane id=":1879817526_1_0" index="0" disallow="tram rail_urban rail rail_electric rail_fast ship" speed="3.65" length="4.68" shape="10121.35,695.76 10121.70,697.16 10122.32,697.81 10123.21,697.70 10124.37,696.84"/>
    </edge>
    <edge id=":1879817526_2" function="internal">
        <lane id=":1879817526_2_0" index="0" disallow="tram rail_urban rail rail_electric rail_fast ship" speed="6.39" length="8.94" shape="10128.07,703.67 10125.85,702.75 10124.50,701.30 10124.00,699.33 10124.37,696.84"/>
    </edge>
    <edge id=":1879817526_3" function="internal">
        <lane id=":1879817526_3_0" index="0" disallow="tram rail_urban rail rail_electric rail_fast ship" speed="13.89" length="14.50" shape="10128.07,703.67 10114.09,699.85"/>
    </edge>
    <edge id=":1879817556_0" function="internal">
        <lane id=":1879817556_0_0" index="0" disallow="tram rail_urban rail rail_electric rail_fast ship" speed="13.89" length="16.31" shape="10164.68,735.02 10162.91,738.56 10161.25,742.41 10159.74,746.34 10158.40,750.06"/>
    </edge>
    <edge id=":1879817556_1" function="internal">
        <lane id=":1879817556_1_0" index="0" disallow="tram rail_urban rail rail_electric rail_fast ship" speed="6.98" length="1.09" shape="10164.68,735.02 10164.63,736.11"/>
    </edge>
    <edge id=":1879817556_2" function="internal">
        <lane id=":1879817556_2_0" index="0" disallow="tram rail_urban rail rail_electric rail_fast ship" speed="3.65" length="2.34" shape="10164.68,735.02 10164.80,736.46 10165.30,737.20"/>
    </edge>
    <edge id=":1879817556_11" function="internal">
        <lane id=":1879817556_11_0" index="0" disallow="tram rail_urban rail rail_electric rail_fast ship" speed="6.98" length="7.74" shape="10164.63,736.11 10165.43,737.62 10167.10,739.56 10169.62,741.94"/>
    </edge>
    <edge id=":1879817556_12" function="internal">
        <lane id=":1879817556_12_0" index="0" disallow="tram rail_urban rail rail_electric rail_fast ship" speed="3.65" length="2.34" shape="10165.30,737.20 10166.20,737.23 10167.48,736.57"/>
    </edge>
    <edge id=":1879817556_3" function="internal">
        <lane id=":1879817556_3_0" index="0" disallow="tram rail_urban rail rail_electric rail_fast ship" speed="5.14" length="6.77" shape="10161.43,751.12 10162.46,748.59 10163.47,747.02 10164.45,746.41 10165.41,746.75"/>
    </edge>
    <edge id=":1879817556_4" function="internal">
        <lane id=":1879817556_4_0" index="0" disallow="tram rail_urban rail rail_electric rail_fast ship" speed="13.89" length="15.77" shape="10161.43,751.12 10162.73,747.47 10164.16,743.71 10165.75,740.03 10167.48,736.57"/>
    </edge>
    <edge id=":1879817556_5" function="internal">
        <lane id=":1879817556_5_0" index="0" disallow="tram rail_urban rail rail_electric rail_fast ship" speed="3.65" length="2.34" shape="10161.43,751.12 10161.07,749.72 10160.44,749.08"/>
    </edge>
    <edge id=":1879817556_13" function="internal">
        <lane id=":1879817556_13_0" index="0" disallow="tram rail_urban rail rail_electric rail_fast ship" speed="3.65" length="2.34" shape="10160.44,749.08 10159.56,749.19 10158.40,750.06"/>
    </edge>
    <edge id=":1879817556_6" function="internal">
        <lane id=":1879817556_6_0" index="0" disallow="tram rail_urban rail rail_electric rail_fast ship" speed="7.24" length="10.66" shape="10155.84,740.84 10157.87,742.26 10158.98,744.27 10159.16,746.87 10158.40,750.06"/>
    </edge>
    <edge id=":1879817556_7" function="internal">
        <lane id=":1879817556_7_0" index="0" disallow="tram rail_urban rail rail_electric rail_fast ship" speed="27.78" length="12.28" shape="10155.84,740.84 10158.90,742.21 10160.96,743.27 10162.85,744.59 10165.41,746.75"/>
        <lane id=":1879817556_7_1" index="1" disallow="tram rail_urban rail rail_electric rail_fast ship" speed="27.78" length="12.28" shape="10157.15,737.92 10160.47,739.41 10162.70,740.56 10164.74,742.00 10167.52,744.34"/>
        <lane id=":1879817556_7_2" index="2" disallow="tram rail_urban rail rail_electric rail_fast ship" speed="27.78" length="12.28" shape="10158.46,735.00 10162.04,736.61 10164.43,737.85 10166.64,739.41 10169.62,741.94"/>
    </edge>
    <edge id=":1879817556_10" function="internal">
        <lane id=":1879817556_10_0" index="0" disallow="tram rail_urban rail rail_electric rail_fast ship" speed="6.89" length="9.59" shape="10158.46,735.00 10161.99,736.43 10164.67,737.17 10166.50,737.22 10167.48,736.57"/>
    </edge>
    <edge id=":1879817582_0" function="internal">
        <lane id=":1879817582_0_0" index="0" disallow="tram rail_urban rail rail_electric rail_fast ship" speed="5.81" length="9.14" shape="10175.07,763.92 10176.54,761.68 10178.20,760.77 10180.04,761.18 10182.07,762.93"/>
    </edge>
    <edge id=":1879817582_1" function="internal">
        <lane id=":1879817582_1_0" index="0" disallow="tram rail_urban rail rail_electric rail_fast ship" speed="13.89" length="23.65" shape="10175.07,763.92 10176.29,759.03 10176.79,752.31 10176.61,745.54 10175.81,740.50"/>
    </edge>
    <edge id=":1879817582_2" function="internal">
        <lane id=":1879817582_2_0" index="0" disallow="tram rail_urban rail rail_electric rail_fast ship" speed="3.65" length="4.67" shape="10175.07,763.92 10174.86,762.49 10174.31,761.79 10173.41,761.81 10172.18,762.55"/>
    </edge>
    <edge id=":1879817582_3" function="internal">
        <lane id=":1879817582_3_0" index="0" disallow="tram rail_urban rail rail_electric rail_fast ship" speed="10.08" length="18.24" shape="10165.56,746.88 10169.69,751.12 10172.18,755.14 10173.00,758.95 10172.18,762.55"/>
    </edge>
    <edge id=":1879817582_4" function="internal">
        <lane id=":1879817582_4_0" index="0" disallow="tram rail_urban rail rail_electric rail_fast ship" speed="27.78" length="23.47" shape="10165.56,746.88 10170.72,751.38 10174.21,754.51 10177.50,757.85 10182.07,762.93"/>
        <lane id=":1879817582_4_1" index="1" disallow="tram rail_urban rail rail_electric rail_fast ship" speed="27.78" length="23.47" shape="10167.67,744.48 10172.92,749.05 10176.47,752.24 10179.82,755.64 10184.47,760.81"/>
        <lane id=":1879817582_4_2" index="2" disallow="tram rail_urban rail rail_electric rail_fast ship" speed="27.78" length="23.47" shape="10169.77,742.07 10175.12,746.72 10178.73,749.97 10182.13,753.43 10186.87,758.70"/>
    </edge>
    <edge id=":1879817582_7" function="internal">
        <lane id=":1879817582_7_0" index="0" disallow="tram rail_urban rail rail_electric rail_fast ship" speed="5.79" length="12.33" shape="10169.77,742.07 10173.49,744.89 10175.73,745.57 10176.51,744.10 10175.81,740.50"/>
    </edge>
    <edge id=":1879817582_8" function="internal">
        <lane id=":1879817582_8_0" index="0" disallow="tram rail_urban rail rail_electric rail_fast ship" speed="13.89" length="21.36" shape="10172.75,741.44 10173.58,746.12 10173.81,752.09 10173.37,758.02 10172.18,762.55"/>
    </edge>
    <edge id=":1879817582_9" function="internal">
        <lane id=":1879817582_9_0" index="0" disallow="tram rail_urban rail rail_electric rail_fast ship" speed="20.84" length="22.42" shape="10172.75,741.44 10174.54,744.97 10177.59,748.72 10181.76,753.14 10186.87,758.70"/>
    </edge>
    <edge id=":1879817582_10" function="internal">
        <lane id=":1879817582_10_0" index="0" disallow="tram rail_urban rail rail_electric rail_fast ship" speed="3.65" length="4.67" shape="10172.75,741.44 10173.87,742.35 10174.75,742.50 10175.40,741.88 10175.81,740.50"/>
    </edge>
    <edge id=":1879817614_0" function="internal">
        <lane id=":1879817614_0_0" index="0" disallow="tram rail_urban rail rail_electric rail_fast ship" speed="27.78" length="0.69" shape="10824.23,786.88 10823.90,786.95 10823.67,787.00 10823.44,787.07 10823.12,787.18"/>
        <lane id=":1879817614_0_1" index="1" disallow="tram rail_urban rail rail_electric rail_fast ship" speed="27.78" length="0.69" shape="10824.85,790.02 10824.64,790.06 10824.51,790.09 10824.37,790.13 10824.18,790.20"/>
        <lane id=":1879817614_0_2" index="2" disallow="tram rail_urban rail rail_electric rail_fast ship" speed="27.78" length="0.69" shape="10825.46,793.16 10825.39,793.17 10825.35,793.18 10825.30,793.20 10825.24,793.22"/>
    </edge>
    <edge id=":1879817616_0" function="internal">
        <lane id=":1879817616_0_0" index="0" disallow="tram rail_urban rail rail_electric rail_fast ship" speed="22.22" length="9.62" shape="10782.95,791.08 10780.25,792.00 10778.42,792.69 10776.64,793.49 10774.07,794.74"/>
    </edge>
    <edge id=":1879817616_1" function="internal">
        <lane id=":1879817616_1_0" index="0" disallow="tram rail_urban rail rail_electric rail_fast ship" speed="6.07" length="7.98" shape="10782.95,791.08 10780.39,792.17 10778.73,793.41 10777.99,794.80 10778.16,796.34"/>
    </edge>
    <edge id=":1879817616_2" function="internal">
        <lane id=":1879817616_2_0" index="0" disallow="tram rail_urban rail rail_electric rail_fast ship" speed="6.00" length="8.01" shape="10781.14,795.18 10780.22,793.92 10778.74,793.43 10776.69,793.70 10774.07,794.74"/>
    </edge>
    <edge id=":1879817616_3" function="internal">
        <lane id=":1879817616_3_0" index="0" disallow="tram rail_urban rail rail_electric rail_fast ship" speed="3.65" length="4.67" shape="10781.14,795.18 10779.96,794.35 10779.07,794.27 10778.47,794.93 10778.16,796.34"/>
    </edge>
    <edge id=":1879817619_0" function="internal">
        <lane id=":1879817619_0_0" index="0" disallow="tram rail_urban rail rail_electric rail_fast ship" speed="27.78" length="0.44" shape="10825.72,806.58 10825.76,806.56 10825.79,806.56 10825.82,806.55 10825.86,806.54"/>
        <lane id=":1879817619_0_1" index="1" disallow="tram rail_urban rail rail_electric rail_fast ship" speed="27.78" length="0.44" shape="10824.81,803.51 10824.94,803.47 10825.02,803.45 10825.11,803.43 10825.24,803.40"/>
        <lane id=":1879817619_0_2" index="2" disallow="tram rail_urban rail rail_electric rail_fast ship" speed="27.78" length="0.44" shape="10823.90,800.44 10824.11,800.38 10824.26,800.34 10824.41,800.30 10824.62,800.26"/>
    </edge>
    <edge id=":1879817626_0" function="internal">
        <lane id=":1879817626_0_0" index="0" disallow="tram rail_urban rail rail_electric rail_fast ship" speed="20.84" length="3.16" shape="10267.04,822.73 10266.42,822.03 10266.01,821.53 10265.62,821.02 10265.07,820.26"/>
    </edge>
    <edge id=":1879817626_1" function="internal">
        <lane id=":1879817626_1_0" index="0" disallow="tram rail_urban rail rail_electric rail_fast ship" speed="27.78" length="3.16" shape="10264.63,824.85 10262.55,822.48"/>
        <lane id=":1879817626_1_1" index="1" disallow="tram rail_urban rail rail_electric rail_fast ship" speed="27.78" length="3.16" shape="10262.23,826.96 10260.15,824.59"/>
        <lane id=":1879817626_1_2" index="2" disallow="tram rail_urban rail rail_electric rail_fast ship" speed="27.78" length="3.16" shape="10259.83,829.08 10257.75,826.71"/>
    </edge>
    <edge id=":1879817629_0" function="internal">
        <lane id=":1879817629_0_0" index="0" disallow="tram rail_urban rail rail_electric rail_fast ship" speed="22.22" length="9.00" shape="10786.07,824.80 10788.42,823.53 10790.08,822.77 10791.83,822.21 10794.42,821.57"/>
    </edge>
    <edge id=":1879817629_1" function="internal">
        <lane id=":1879817629_1_0" index="0" disallow="tram rail_urban rail rail_electric rail_fast ship" speed="5.85" length="6.39" shape="10786.07,824.80 10787.29,824.16 10789.08,823.15 10790.65,822.05 10791.17,821.15"/>
    </edge>
    <edge id=":1879817629_2" function="internal">
        <lane id=":1879817629_2_0" index="0" disallow="tram rail_urban rail rail_electric rail_fast ship" speed="5.85" length="6.39" shape="10788.19,822.31 10789.18,822.62 10791.07,822.38 10793.08,821.91 10794.42,821.57"/>
    </edge>
    <edge id=":1879817629_3" function="internal">
        <lane id=":1879817629_3_0" index="0" disallow="tram rail_urban rail rail_electric rail_fast ship" speed="3.65" length="4.67" shape="10788.19,822.31 10789.37,823.14 10790.26,823.22 10790.86,822.56 10791.17,821.15"/>
    </edge>
    <edge id=":1879817632_0" function="internal">
        <lane id=":1879817632_0_0" index="0" disallow="tram rail_urban rail rail_electric rail_fast ship" speed="25.00" length="19.40" shape="10288.94,847.29 10286.00,845.03 10283.28,841.94 10280.19,837.96 10276.13,833.05"/>
        <lane id=":1879817632_0_1" index="1" disallow="tram rail_urban rail rail_electric rail_fast ship" speed="25.00" length="19.40" shape="10288.94,847.29 10285.64,845.38 10282.12,843.04 10278.21,839.79 10273.73,835.17"/>
    </edge>
    <edge id=":1879817632_2" function="internal">
        <lane id=":1879817632_2_0" index="0" disallow="tram rail_urban rail rail_electric rail_fast ship" speed="27.78" length="20.34" shape="10287.17,850.42 10273.73,835.17"/>
        <lane id=":1879817632_2_1" index="1" disallow="tram rail_urban rail rail_electric rail_fast ship" speed="27.78" length="20.34" shape="10284.77,852.54 10271.32,837.28"/>
        <lane id=":1879817632_2_2" index="2" disallow="tram rail_urban rail rail_electric rail_fast ship" speed="27.78" length="20.34" shape="10282.37,854.66 10268.92,839.40"/>
    </edge>
    <edge id=":1879817644_0" function="internal">
        <lane id=":1879817644_0_0" index="0" disallow="tram rail_urban rail rail_electric rail_fast ship" speed="22.22" length="3.39" shape="10699.82,853.48 10698.16,856.44"/>
    </edge>
    <edge id=":1879817644_1" function="internal">
        <lane id=":1879817644_1_0" index="0" disallow="tram rail_urban rail rail_electric rail_fast ship" speed="22.22" length="3.19" shape="10702.56,855.13 10702.08,855.94 10701.76,856.51 10701.48,857.09 10701.09,857.95"/>
    </edge>
    <edge id=":1879817651_0" function="internal">
        <lane id=":1879817651_0_0" index="0" disallow="tram rail_urban rail rail_electric rail_fast ship" speed="25.00" length="2.71" shape="10685.73,892.32 10685.40,893.05 10685.17,893.56 10684.97,894.07 10684.72,894.83"/>
    </edge>
    <edge id=":1879817651_1" function="internal">
        <lane id=":1879817651_1_0" index="0" disallow="tram rail_urban rail rail_electric rail_fast ship" speed="27.78" length="1.68" shape="10688.59,893.78 10688.30,894.36 10688.12,894.77 10687.97,895.19 10687.77,895.81"/>
        <lane id=":1879817651_1_1" index="1" disallow="tram rail_urban rail rail_electric rail_fast ship" speed="27.78" length="1.68" shape="10691.44,895.23 10691.22,895.68 10691.08,895.99 10690.97,896.31 10690.81,896.79"/>
        <lane id=":1879817651_1_2" index="2" disallow="tram rail_urban rail rail_electric rail_fast ship" speed="27.78" length="1.68" shape="10694.29,896.69 10694.14,897.00 10694.04,897.21 10693.96,897.44 10693.86,897.77"/>
    </edge>
    <edge id=":1879817671_0" function="internal">
        <lane id=":1879817671_0_0" index="0" disallow="tram rail_urban rail rail_electric rail_fast ship" speed="20.84" length="14.00" shape="10487.28,1087.42 10484.29,1085.87 10481.65,1084.44 10479.06,1082.43 10476.20,1079.14"/>
    </edge>
    <edge id=":1879817671_1" function="internal">
        <lane id=":1879817671_1_0" index="0" disallow="tram rail_urban rail rail_electric rail_fast ship" speed="27.78" length="14.00" shape="10483.87,1091.07 10476.20,1079.14"/>
        <lane id=":1879817671_1_1" index="1" disallow="tram rail_urban rail rail_electric rail_fast ship" speed="27.78" length="14.00" shape="10481.20,1092.83 10473.63,1081.05"/>
        <lane id=":1879817671_1_2" index="2" disallow="tram rail_urban rail rail_electric rail_fast ship" speed="27.78" length="14.00" shape="10478.52,1094.59 10471.06,1082.95"/>
    </edge>
    <edge id=":1879817672_0" function="internal">
        <lane id=":1879817672_0_0" index="0" disallow="tram rail_urban rail rail_electric rail_fast ship" speed="7.32" length="12.70" shape="10466.10,1076.78 10463.63,1078.31 10462.48,1080.62 10462.63,1083.70 10464.09,1087.56"/>
    </edge>
    <edge id=":1879817672_1" function="internal">
        <lane id=":1879817672_1_0" index="0" disallow="tram rail_urban rail rail_electric rail_fast ship" speed="6.84" length="12.36" shape="10466.10,1076.78 10463.61,1078.31 10462.66,1080.51 10463.25,1083.37 10465.38,1086.89"/>
        <lane id=":1879817672_1_1" index="1" disallow="tram rail_urban rail rail_electric rail_fast ship" speed="6.23" length="10.03" shape="10466.10,1076.78 10464.96,1077.79 10464.95,1079.56 10466.05,1082.09 10468.26,1085.40"/>
    </edge>
    <edge id=":1879817672_3" function="internal">
        <lane id=":1879817672_3_0" index="0" disallow="tram rail_urban rail rail_electric rail_fast ship" speed="3.65" length="4.67" shape="10466.10,1076.78 10465.25,1077.95 10465.15,1078.83 10465.80,1079.45 10467.20,1079.78"/>
    </edge>
    <edge id=":1879817672_4" function="internal">
        <lane id=":1879817672_4_0" index="0" disallow="tram rail_urban rail rail_electric rail_fast ship" speed="25.00" length="13.83" shape="10454.48,1077.73 10457.41,1080.96 10460.00,1083.03 10462.23,1084.91 10464.09,1087.56"/>
    </edge>
    <edge id=":1879817672_5" function="internal">
        <lane id=":1879817672_5_0" index="0" disallow="tram rail_urban rail rail_electric rail_fast ship" speed="27.78" length="13.88" shape="10454.48,1077.73 10462.50,1088.39"/>
        <lane id=":1879817672_5_1" index="1" disallow="tram rail_urban rail rail_electric rail_fast ship" speed="27.78" length="13.88" shape="10457.03,1075.81 10465.38,1086.89"/>
        <lane id=":1879817672_5_2" index="2" disallow="tram rail_urban rail rail_electric rail_fast ship" speed="27.78" length="13.88" shape="10459.59,1073.88 10468.26,1085.40"/>
    </edge>
    <edge id=":1879817672_8" function="internal">
        <lane id=":1879817672_8_0" index="0" disallow="tram rail_urban rail rail_electric rail_fast ship" speed="7.67" length="10.04" shape="10459.59,1073.88 10461.99,1076.80 10464.06,1078.76 10465.80,1079.76 10467.20,1079.78"/>
    </edge>
    <edge id=":1879817674_0" function="internal">
        <lane id=":1879817674_0_0" index="0" disallow="tram rail_urban rail rail_electric rail_fast ship" speed="22.22" length="3.38" shape="10498.02,1090.66 10495.86,1088.07"/>
    </edge>
    <edge id=":1879817674_1" function="internal">
        <lane id=":1879817674_1_0" index="0" disallow="tram rail_urban rail rail_electric rail_fast ship" speed="17.26" length="3.51" shape="10495.64,1092.80 10494.94,1092.03 10494.41,1091.54 10493.82,1091.13 10492.92,1090.61"/>
    </edge>
    <edge id=":1879817701_0" function="internal">
        <lane id=":1879817701_0_0" index="0" disallow="tram rail_urban rail rail_electric rail_fast ship" speed="9.93" length="13.33" shape="10569.79,1118.21 10568.15,1122.26 10566.29,1125.29 10564.22,1127.31 10561.92,1128.32"/>
    </edge>
    <edge id=":1879817701_1" function="internal">
        <lane id=":1879817701_1_0" index="0" disallow="tram rail_urban rail rail_electric rail_fast ship" speed="3.65" length="4.67" shape="10569.79,1118.21 10570.17,1119.60 10570.80,1120.24 10571.68,1120.11 10572.82,1119.23"/>
    </edge>
    <edge id=":1879817701_2" function="internal">
        <lane id=":1879817701_2_0" index="0" disallow="tram rail_urban rail rail_electric rail_fast ship" speed="5.53" length="9.48" shape="10577.37,1123.62 10574.50,1124.32 10572.79,1123.82 10572.23,1122.12 10572.82,1119.23"/>
    </edge>
    <edge id=":1879817701_3" function="internal">
        <lane id=":1879817701_3_0" index="0" disallow="tram rail_urban rail rail_electric rail_fast ship" speed="22.22" length="16.17" shape="10577.37,1123.62 10573.67,1124.95 10569.73,1126.25 10565.74,1127.40 10561.92,1128.32"/>
    </edge>
    <edge id=":2236679222_0" function="internal">
        <lane id=":2236679222_0_0" index="0" disallow="tram rail_urban rail rail_electric rail_fast ship" speed="3.65" length="4.67" shape="10860.66,1023.60 10861.82,1022.74 10862.18,1021.92 10861.74,1021.14 10860.50,1020.40"/>
    </edge>
    <edge id=":245673500_0" function="internal">
        <lane id=":245673500_0_0" index="0" disallow="tram rail_urban rail rail_electric rail_fast ship" speed="5.33" length="6.22" shape="10169.90,722.16 10169.44,722.59 10168.30,722.64 10166.48,722.30 10164.00,721.58"/>
    </edge>
    <edge id=":245673500_1" function="internal">