<?xml version="1.0" encoding="UTF-8"?>

<!-- generated on 2021-12-05 23:18:46 by Eclipse SUMO duarouter Version 1.9.2
<configuration xmlns:xsi="http://www.w3.org/2001/XMLSchema-instance" xsi:noNamespaceSchemaLocation="http://sumo.dlr.de/xsd/duarouterConfiguration.xsd">

    <input>
        <net-file value="C:\Users\saurabh\Sumo\2021-12-05-23-18-42\osm.net.xml"/>
        <route-files value="C:\Users\saurabh\Sumo\2021-12-05-23-18-42\osm.passenger.trips.xml"/>
    </input>

    <output>
        <output-file value="C:\Users\saurabh\Sumo\2021-12-05-23-18-42\osm.passenger.trips.xml.tmp"/>
        <write-trips value="true"/>
    </output>

    <time>
        <begin value="0"/>
        <end value="3600"/>
    </time>

    <report>
        <no-warnings value="true"/>
        <ignore-errors value="true"/>
        <no-step-log value="true"/>
    </report>

</configuration>
-->

<routes xmlns:xsi="http://www.w3.org/2001/XMLSchema-instance" xsi:noNamespaceSchemaLocation="http://sumo.dlr.de/xsd/routes_file.xsd">
    <vType id="veh_passenger" vClass="passenger"/>
    <trip id="veh1" type="veh_passenger" depart="9.78" departLane="best" departSpeed="max" from="273833832#0" to="177566559#4"/>
    <trip id="veh2" type="veh_passenger" depart="19.55" departLane="best" departSpeed="max" from="177566537" to="-22843125"/>
    <trip id="veh3" type="veh_passenger" depart="29.33" departLane="best" from="177566523#0" to="177566541"/>
    <trip id="veh5" type="veh_passenger" depart="48.88" departLane="best" from="177566523#0" to="177566558#2"/>
    <trip id="veh7" type="veh_passenger" depart="68.43" departLane="best" from="273833832#4" to="177566572#3"/>
    <trip id="veh8" type="veh_passenger" depart="78.21" departLane="best" from="177566523#6" to="-622415793#2"/>
    <trip id="veh9" type="veh_passenger" depart="87.98" departLane="best" from="672838526#0" to="177566523#7"/>
    <trip id="veh11" type="veh_passenger" depart="107.54" departLane="best" from="177566523#8" to="177566556#3"/>
    <trip id="veh12" type="veh_passenger" depart="117.31" departLane="best" from="366913700#1" to="177566558#0"/>
    <trip id="veh13" type="veh_passenger" depart="127.09" departLane="best" departSpeed="max" from="273833832#0" to="-22843134"/>
    <trip id="veh14" type="veh_passenger" depart="136.86" departLane="best" from="177566523#0" to="177566523#4"/>
    <trip id="veh15" type="veh_passenger" depart="146.64" departLane="best" from="-366913700#3" to="177566523#1"/>
    <trip id="veh16" type="veh_passenger" depart="156.42" departLane="best" from="-52511313#1" to="177566523#2-AddedOnRampEdge"/>
    <trip id="veh17" type="veh_passenger" depart="166.19" departLane="best" from="177566572#4" to="177566523#8"/>
    <trip id="veh20" type="veh_passenger" depart="195.52" departLane="best" from="-672838526#1" to="22843125"/>
    <trip id="veh21" type="veh_passenger" depart="205.30" departLane="best" from="-672838526#0" to="177566523#9"/>
    <trip id="veh22" type="veh_passenger" depart="215.07" departLane="best" from="723552318#2" to="177566559#1"/>
    <trip id="veh23" type="veh_passenger" depart="224.85" departLane="best" from="177566559#0" to="177566566"/>
    <trip id="veh25" type="veh_passenger" depart="244.40" departLane="best" from="177566523#0" to="-22843125"/>
    <trip id="veh26" type="veh_passenger" depart="254.18" departLane="best" from="366913700#3" to="177566523#5"/>
    <trip id="veh27" type="veh_passenger" depart="263.95" departLane="best" from="22843125" to="177566523#9"/>
    <trip id="veh28" type="veh_passenger" depart="273.73" departLane="best" from="547023629#0" to="177566541"/>
    <trip id="veh29" type="veh_passenger" depart="283.50" departLane="best" from="177566559#1" to="177566523#2-AddedOnRampEdge"/>
    <trip id="veh30" type="veh_passenger" depart="293.28" departLane="best" departSpeed="max" from="177566572#0" to="52511313#1"/>
    <trip id="veh31" type="veh_passenger" depart="303.06" departLane="best" departSpeed="max" from="177566537" to="177566523#0"/>
    <trip id="veh32" type="veh_passenger" depart="312.83" departLane="best" from="992408934" to="177566541"/>
    <trip id="veh33" type="veh_passenger" depart="322.61" departLane="best" from="273833832#3" to="177566523#9"/>
    <trip id="veh34" type="veh_passenger" depart="332.38" departLane="best" from="-366913700#0" to="177566523#9"/>
    <trip id="veh35" type="veh_passenger" depart="342.16" departLane="best" from="992408934" to="177566541"/>
    <trip id="veh36" type="veh_passenger" depart="351.94" departLane="best" from="672838526#2" to="366913700#0"/>
    <trip id="veh38" type="veh_passenger" depart="371.49" departLane="best" from="22843276#1" to="177566556#0"/>
    <trip id="veh39" type="veh_passenger" depart="381.26" departLane="best" from="177566523#2" to="177566559#1"/>
    <trip id="veh40" type="veh_passenger" depart="391.04" departLane="best" from="-52514845" to="177566523#9"/>
    <trip id="veh41" type="veh_passenger" depart="400.82" departLane="best" departSpeed="max" from="177566537" to="622415793#2"/>
    <trip id="veh42" type="veh_passenger" depart="410.59" departLane="best" from="366913700#3" to="177566523#2-AddedOnRampEdge"/>
    <trip id="veh43" type="veh_passenger" depart="420.37" departLane="best" from="177566558#0" to="-672840525"/>
    <trip id="veh44" type="veh_passenger" depart="430.14" departLane="best" from="547023629#0" to="366913700#2"/>
    <trip id="veh45" type="veh_passenger" depart="439.92" departLane="best" from="177566523#4" to="177566559#1"/>
    <trip id="veh46" type="veh_passenger" depart="449.70" departLane="best" from="177566572#1" to="-622415793#2"/>
    <trip id="veh47" type="veh_passenger" depart="459.47" departLane="best" departSpeed="max" from="273833832#0" to="177566556#1"/>
    <trip id="veh48" type="veh_passenger" depart="469.25" departLane="best" from="273833832#2" to="177566541"/>
    <trip id="veh50" type="veh_passenger" depart="488.80" departLane="best" from="366913700#4" to="273833832#5"/>
    <trip id="veh51" type="veh_passenger" depart="498.58" departLane="best" from="177566523#5" to="-22843276#1"/>
    <trip id="veh52" type="veh_passenger" depart="508.35" departLane="best" from="-366913700#4" to="177566541"/>
    <trip id="veh53" type="veh_passenger" depart="518.13" departLane="best" departSpeed="max" from="273833832#0" to="-547023629#2"/>
    <trip id="veh54" type="veh_passenger" depart="527.90" departLane="best" from="177566523#2" to="366913700#2"/>
    <trip id="veh56" type="veh_passenger" depart="547.46" departLane="best" from="992408934" to="177566559#3"/>
    <trip id="veh58" type="veh_passenger" depart="567.01" departLane="best" from="177566523#0" to="52514845"/>
    <trip id="veh59" type="veh_passenger" depart="576.78" departLane="best" from="177566523#1" to="177566559#4"/>
    <trip id="veh60" type="veh_passenger" depart="586.56" departLane="best" from="151850835" to="-622415769#0"/>
    <trip id="veh61" type="veh_passenger" depart="596.34" departLane="best" from="622415769#1" to="177566556#3"/>
    <trip id="veh62" type="veh_passenger" depart="606.11" departLane="best" departSpeed="max" from="177566537" to="273833832#2"/>
    <trip id="veh63" type="veh_passenger" depart="615.89" departLane="best" from="-439272706#1" to="177566523#9"/>
    <trip id="veh64" type="veh_passenger" depart="625.66" departLane="best" departSpeed="max" from="273833832#0" to="177566559#4"/>
    <trip id="veh65" type="veh_passenger" depart="635.44" departLane="best" departSpeed="max" from="177566537" to="177566523#7"/>
    <trip id="veh66" type="veh_passenger" depart="645.22" departLane="best" from="366913700#1" to="177566523#2"/>
    <trip id="veh67" type="veh_passenger" depart="654.99" departLane="best" from="-723552318#1" to="177566523#9"/>
    <trip id="veh68" type="veh_passenger" depart="664.77" departLane="best" departSpeed="max" from="177566537" to="177566523#2-AddedOnRampEdge"/>
    <trip id="veh69" type="veh_passenger" depart="674.55" departLane="best" from="177566523#1" to="547023629#1"/>
    <trip id="veh70" type="veh_passenger" depart="684.32" departLane="best" departSpeed="max" from="177566537" to="366913700#0"/>
    <trip id="veh71" type="veh_passenger" depart="694.10" departLane="best" from="992408934" to="273833832#5"/>
    <trip id="veh72" type="veh_passenger" depart="703.87" departLane="best" from="672838526#2" to="547023629#2"/>
    <trip id="veh74" type="veh_passenger" depart="723.43" departLane="best" departSpeed="max" from="177566537" to="-22843276#1"/>
    <trip id="veh75" type="veh_passenger" depart="733.20" departLane="best" from="177566523#2" to="273833832#2"/>
    <trip id="veh76" type="veh_passenger" depart="742.98" departLane="best" departSpeed="max" from="177566537" to="177566523#9"/>
    <trip id="veh78" type="veh_passenger" depart="762.53" departLane="best" from="-622415793#1" to="177566523#4"/>
    <trip id="veh79" type="veh_passenger" depart="772.31" departLane="best" from="672838526#2" to="177566558#0"/>
    <trip id="veh80" type="veh_passenger" depart="782.08" departLane="best" from="-22843276#1" to="177566558#1"/>
    <trip id="veh81" type="veh_passenger" depart="791.86" departLane="best" from="177566558#1" to="273833832#6"/>
    <trip id="veh82" type="veh_passenger" depart="801.63" departLane="best" from="-622415793#2" to="672838526#0"/>
    <trip id="veh83" type="veh_passenger" depart="811.41" departLane="best" departSpeed="max" from="177566572#0" to="177566559#4"/>
    <trip id="veh84" type="veh_passenger" depart="821.19" departLane="best" from="177566523#1" to="-547023629#1"/>
    <trip id="veh85" type="veh_passenger" depart="830.96" departLane="best" from="439272706#1" to="177566523#2"/>
    <trip id="veh86" type="veh_passenger" depart="840.74" departLane="best" departSpeed="max" from="177566572#0" to="177566558#6"/>
    <trip id="veh87" type="veh_passenger" depart="850.51" departLane="best" departSpeed="max" from="177566537" to="177566558#1"/>
    <trip id="veh88" type="veh_passenger" depart="860.29" departLane="best" from="-992408934" to="185467797"/>
    <trip id="veh89" type="veh_passenger" depart="870.07" departLane="best" from="177566523#1" to="177566523#9"/>
    <trip id="veh90" type="veh_passenger" depart="879.84" departLane="best" from="22843134" to="177566523#5"/>
    <trip id="veh91" type="veh_passenger" depart="889.62" departLane="best" from="177566523#5" to="22843276#0"/>
    <trip id="veh92" type="veh_passenger" depart="899.39" departLane="best" from="-366913700#1" to="177566541"/>
    <trip id="veh94" type="veh_passenger" depart="918.95" departLane="best" from="177566523#8" to="-672838526#0"/>
    <trip id="veh95" type="veh_passenger" depart="928.72" departLane="best" from="273833832#5" to="177566572#3"/>
    <trip id="veh96" type="veh_passenger" depart="938.50" departLane="best" from="177566572#1" to="723552318#1"/>
    <trip id="veh98" type="veh_passenger" depart="958.05" departLane="best" from="22843127#0" to="622415769#1"/>
    <trip id="veh99" type="veh_passenger" depart="967.83" departLane="best" from="-52514845" to="177566556#3"/>
    <trip id="veh100" type="veh_passenger" depart="977.60" departLane="best" departSpeed="max" from="273833832#0" to="104902793"/>
    <trip id="veh101" type="veh_passenger" depart="987.38" departLane="best" from="177566556#1" to="52514845"/>
    <trip id="veh102" type="veh_passenger" depart="997.15" departLane="best" departSpeed="max" from="177566537" to="177566523#2-AddedOnRampEdge"/>
    <trip id="veh103" type="veh_passenger" depart="1006.93" departLane="best" departSpeed="max" from="273833832#0" to="177566556#3"/>
    <trip id="veh105" type="veh_passenger" depart="1026.48" departLane="best" from="52514845" to="177566556#2"/>
    <trip id="veh106" type="veh_passenger" depart="1036.26" departLane="best" from="-622415793#0" to="-547023629#2"/>
    <trip id="veh107" type="veh_passenger" depart="1046.03" departLane="best" from="177566523#5" to="52511313#1"/>
    <trip id="veh109" type="veh_passenger" depart="1065.59" departLane="best" from="177566523#1" to="-52511313#1"/>
    <trip id="veh110" type="veh_passenger" depart="1075.36" departLane="best" from="273833832#2" to="366913700#4"/>
    <trip id="veh111" type="veh_passenger" depart="1085.14" departLane="best" departSpeed="max" from="177566537" to="177566558#7"/>
    <trip id="veh112" type="veh_passenger" depart="1094.91" departLane="best" from="-622415793#1" to="622415769#0"/>
    <trip id="veh113" type="veh_passenger" depart="1104.69" departLane="best" from="366913700#1" to="672840525"/>
    <trip id="veh115" type="veh_passenger" depart="1124.24" departLane="best" from="366913700#3" to="273833832#6"/>
    <trip id="veh116" type="veh_passenger" depart="1134.02" departLane="best" from="177566523#0" to="273833832#4"/>
    <trip id="veh117" type="veh_passenger" depart="1143.79" departLane="best" departSpeed="max" from="177566537" to="177566523#5"/>
    <trip id="veh120" type="veh_passenger" depart="1173.12" departLane="best" from="177566523#6" to="366913700#1"/>
    <trip id="veh121" type="veh_passenger" depart="1182.90" departLane="best" from="185467797" to="177566523#9"/>
    <trip id="veh122" type="veh_passenger" depart="1192.67" departLane="best" from="622415793#0" to="-547023629#0"/>
    <trip id="veh123" type="veh_passenger" depart="1202.45" departLane="best" from="672838526#2" to="-672840525"/>
    <trip id="veh124" type="veh_passenger" depart="1212.23" departLane="best" from="-52514845" to="177566523#9"/>
    <trip id="veh125" type="veh_passenger" depart="1222.00" departLane="best" departSpeed="max" from="273833832#0" to="177566523#5"/>
    <trip id="veh127" type="veh_passenger" depart="1241.55" departLane="best" from="-104902793" to="547023629#2"/>
    <trip id="veh129" type="veh_passenger" depart="1261.11" departLane="best" departSpeed="max" from="273833832#0" to="177566559#4"/>
    <trip id="veh130" type="veh_passenger" depart="1270.88" departLane="best" from="177566523#5" to="273833832#6"/>
    <trip id="veh131" type="veh_passenger" depart="1280.66" departLane="best" departSpeed="max" from="273833832#0" to="177566523#5"/>
    <trip id="veh132" type="veh_passenger" depart="1290.43" departLane="best" from="177566523#5" to="177566523#9"/>
    <trip id="veh133" type="veh_passenger" depart="1300.21" departLane="best" departSpeed="max" from="177566537" to="177566523#4"/>
    <trip id="veh134" type="veh_passenger" depart="1309.99" departLane="best" from="-547023629#1" to="177566523#9"/>
    <trip id="veh135" type="veh_passenger" depart="1319.76" departLane="best" from="622415793#0" to="177566559#4"/>
    <trip id="veh136" type="veh_passenger" depart="1329.54" departLane="best" from="177566523#4" to="177566556#2"/>
    <trip id="veh137" type="veh_passenger" depart="1339.31" departLane="best" departSpeed="max" from="177566537" to="177566558#0"/>
    <trip id="veh138" type="veh_passenger" depart="1349.09" departLane="best" from="22843125" to="177566541"/>
    <trip id="veh139" type="veh_passenger" depart="1358.87" departLane="best" departSpeed="max" from="177566537" to="177566523#0"/>
    <trip id="veh140" type="veh_passenger" depart="1368.64" departLane="best" departSpeed="max" from="177566537" to="52511313#1"/>
    <trip id="veh141" type="veh_passenger" depart="1378.42" departLane="best" from="273833832#3" to="-672838526#2"/>
    <trip id="veh142" type="veh_passenger" depart="1388.19" departLane="best" from="-366913700#4" to="177566541"/>
    <trip id="veh143" type="veh_passenger" depart="1397.97" departLane="best" from="177566572#4" to="177566523#7"/>
    <trip id="veh144" type="veh_passenger" depart="1407.75" departLane="best" from="273833832#4" to="22843276#0"/>
    <trip id="veh147" type="veh_passenger" depart="1437.07" departLane="best" from="177566523#1" to="177566541"/>
    <trip id="veh149" type="veh_passenger" depart="1456.63" departLane="best" departSpeed="max" from="177566537" to="177566558#8"/>
    <trip id="veh150" type="veh_passenger" depart="1466.40" departLane="best" from="177566556#2" to="177566523#1"/>
    <trip id="veh152" type="veh_passenger" depart="1485.95" departLane="best" departSpeed="max" from="273833832#0" to="273833832#0"/>
    <trip id="veh153" type="veh_passenger" depart="1495.73" departLane="best" from="-52514845" to="177566523#9"/>
    <trip id="veh154" type="veh_passenger" depart="1505.51" departLane="best" from="177566558#2" to="-22843276#0"/>
    <trip id="veh155" type="veh_passenger" depart="1515.28" departLane="best" departSpeed="max" from="177566537" to="273833832#3"/>
    <trip id="veh156" type="veh_passenger" depart="1525.06" departLane="best" departSpeed="max" from="177566572#0" to="622415793#1"/>
    <trip id="veh157" type="veh_passenger" depart="1534.83" departLane="best" from="439272706#1" to="177566558#5"/>
    <trip id="veh158" type="veh_passenger" depart="1544.61" departLane="best" departSpeed="max" from="273833832#0" to="177566541"/>
    <trip id="veh159" type="veh_passenger" depart="1554.39" departLane="best" from="273833832#5" to="177566556#2"/>
    <trip id="veh160" type="veh_passenger" depart="1564.16" departLane="best" departSpeed="max" from="177566537" to="177566523#2"/>
    <trip id="veh161" type="veh_passenger" depart="1573.94" departLane="best" from="177566523#1" to="177566559#1"/>
    <trip id="veh162" type="veh_passenger" depart="1583.71" departLane="best" departSpeed="max" from="273833832#0" to="177566541"/>
    <trip id="veh163" type="veh_passenger" depart="1593.49" departLane="best" from="-366913700#2" to="177566523#4"/>
    <trip id="veh164" type="veh_passenger" depart="1603.27" departLane="best" from="177566523#2-AddedOnRampEdge" to="177566523#6"/>
    <trip id="veh165" type="veh_passenger" depart="1613.04" departLane="best" departSpeed="max" from="273833832#0" to="-366913700#0"/>
    <trip id="veh166" type="veh_passenger" depart="1622.82" departLane="best" departSpeed="max" from="177566537" to="177566556#1"/>
    <trip id="veh168" type="veh_passenger" depart="1642.37" departLane="best" departSpeed="max" from="177566537" to="52514845"/>
    <trip id="veh169" type="veh_passenger" depart="1652.15" departLane="best" departSpeed="max" from="177566572#0" to="177566572#2"/>
    <trip id="veh172" type="veh_passenger" depart="1681.47" departLane="best" departSpeed="max" from="177566537" to="22843134"/>
    <trip id="veh173" type="veh_passenger" depart="1691.25" departLane="best" departSpeed="max" from="177566537" to="-22843125"/>
    <trip id="veh174" type="veh_passenger" depart="1701.03" departLane="best" from="177566523#6" to="177566559#4"/>
    <trip id="veh175" type="veh_passenger" depart="1710.80" departLane="best" departSpeed="max" from="177566537" to="-672838526#1"/>
    <trip id="veh176" type="veh_passenger" depart="1720.58" departLane="best" departSpeed="max" from="177566537" to="-547023629#2"/>
    <trip id="veh179" type="veh_passenger" depart="1749.91" departLane="best" from="-622415769#0" to="177566541"/>
    <trip id="veh180" type="veh_passenger" depart="1759.68" departLane="best" from="-22843276#0" to="177566523#9"/>
    <trip id="veh181" type="veh_passenger" depart="1769.46" departLane="best" departSpeed="max" from="273833832#0" to="273833832#5"/>
    <trip id="veh182" type="veh_passenger" depart="1779.23" departLane="best" from="177566523#2" to="-366913700#4"/>
    <trip id="veh186" type="veh_passenger" depart="1818.34" departLane="best" from="622415793#1" to="-992408934"/>
    <trip id="veh188" type="veh_passenger" depart="1837.89" departLane="best" from="-547023629#1" to="177566559#4"/>
    <trip id="veh190" type="veh_passenger" depart="1857.44" departLane="best" departSpeed="max" from="273833832#0" to="273833832#0"/>
    <trip id="veh191" type="veh_passenger" depart="1867.22" departLane="best" from="-672838526#1" to="177566558#4"/>
    <trip id="veh192" type="veh_passenger" depart="1876.99" departLane="best" departSpeed="max" from="273833832#0" to="-547023629#0"/>
    <trip id="veh193" type="veh_passenger" depart="1886.77" departLane="best" from="273833832#4" to="672838526#1"/>
    <trip id="veh195" type="veh_passenger" depart="1906.32" departLane="best" from="177566523#5" to="177566559#4"/>
    <trip id="veh196" type="veh_passenger" depart="1916.10" departLane="best" from="672838526#0" to="177566523#9"/>
    <trip id="veh197" type="veh_passenger" depart="1925.87" departLane="best" departSpeed="max" from="273833832#0" to="-366913700#2"/>
    <trip id="veh198" type="veh_passenger" depart="1935.65" departLane="best" departSpeed="max" from="273833832#0" to="177566558#8"/>
    <trip id="veh201" type="veh_passenger" depart="1964.98" departLane="best" departSpeed="max" from="177566537" to="177566523#9"/>
    <trip id="veh202" type="veh_passenger" depart="1974.76" departLane="best" from="177566558#1" to="177566523#7"/>
    <trip id="veh204" type="veh_passenger" depart="1994.31" departLane="best" from="-52511313#1" to="672838526#0"/>
    <trip id="veh205" type="veh_passenger" depart="2004.08" departLane="best" departSpeed="max" from="273833832#0" to="672838526#1"/>
    <trip id="veh206" type="veh_passenger" depart="2013.86" departLane="best" from="177566558#6" to="177566541"/>
    <trip id="veh207" type="veh_passenger" depart="2023.64" departLane="best" departSpeed="max" from="177566537" to="22843125"/>
    <trip id="veh208" type="veh_passenger" depart="2033.41" departLane="best" from="273833832#5" to="-366913700#4"/>
    <trip id="veh209" type="veh_passenger" depart="2043.19" departLane="best" from="366913700#4" to="177566523#1"/>
    <trip id="veh210" type="veh_passenger" depart="2052.96" departLane="best" departSpeed="max" from="177566537" to="177566558#5"/>
    <trip id="veh211" type="veh_passenger" depart="2062.74" departLane="best" from="177566523#8" to="-22843125"/>
    <trip id="veh213" type="veh_passenger" depart="2082.29" departLane="best" from="104902793" to="273833832#3"/>
    <trip id="veh214" type="veh_passenger" depart="2092.07" departLane="best" from="177566523#6" to="366913700#3"/>
    <trip id="veh215" type="veh_passenger" depart="2101.84" departLane="best" departSpeed="max" from="273833832#0" to="177566523#2-AddedOnRampEdge"/>
    <trip id="veh216" type="veh_passenger" depart="2111.62" departLane="best" from="-151850835" to="622415793#1"/>
    <trip id="veh218" type="veh_passenger" depart="2131.17" departLane="best" from="177566556#1" to="22843276#1"/>
    <trip id="veh219" type="veh_passenger" depart="2140.95" departLane="best" departSpeed="max" from="273833832#0" to="177566559#2"/>
    <trip id="veh220" type="veh_passenger" depart="2150.72" departLane="best" from="177566556#1" to="273833832#2"/>
    <trip id="veh221" type="veh_passenger" depart="2160.50" departLane="best" departSpeed="max" from="273833832#0" to="177566523#5"/>
    <trip id="veh222" type="veh_passenger" depart="2170.28" departLane="best" from="177566558#5" to="177566523#9"/>
    <trip id="veh223" type="veh_passenger" depart="2180.05" departLane="best" departSpeed="max" from="273833832#0" to="177566523#6"/>
    <trip id="veh224" type="veh_passenger" depart="2189.83" departLane="best" departSpeed="max" from="273833832#0" to="177566523#2-AddedOnRampEdge"/>
    <trip id="veh228" type="veh_passenger" depart="2228.93" departLane="best" from="672840525" to="177566541"/>
    <trip id="veh229" type="veh_passenger" depart="2238.71" departLane="best" from="177566523#2-AddedOnRampEdge" to="-52511313#1"/>
    <trip id="veh230" type="veh_passenger" depart="2248.48" departLane="best" from="672840525" to="177566556#3"/>
    <trip id="veh231" type="veh_passenger" depart="2258.26" departLane="best" departSpeed="max" from="273833832#0" to="-547023629#2"/>
    <trip id="veh232" type="veh_passenger" depart="2268.04" departLane="best" from="366913700#2" to="177566541"/>
    <trip id="veh233" type="veh_passenger" depart="2277.81" departLane="best" from="366913700#3" to="177566556#3"/>
    <trip id="veh234" type="veh_passenger" depart="2287.59" departLane="best" departSpeed="max" from="177566537" to="177566523#9"/>
    <trip id="veh235" type="veh_passenger" depart="2297.36" departLane="best" from="622415793#0" to="177566541"/>
    <trip id="veh236" type="veh_passenger" depart="2307.14" departLane="best" from="273833832#5" to="177566523#9"/>
    <trip id="veh237" type="veh_passenger" depart="2316.92" departLane="best" from="177566559#1" to="177566523#5"/>
    <trip id="veh238" type="veh_passenger" depart="2326.69" departLane="best" departSpeed="max" from="273833832#0" to="177566558#4"/>
    <trip id="veh240" type="veh_passenger" depart="2346.24" departLane="best" from="177566558#3" to="177566523#9"/>
    <trip id="veh241" type="veh_passenger" depart="2356.02" departLane="best" departSpeed="max" from="177566537" to="366913700#0"/>
    <trip id="veh242" type="veh_passenger" depart="2365.80" departLane="best" from="177566572#3" to="177566558#5"/>
    <trip id="veh243" type="veh_passenger" depart="2375.57" departLane="best" departSpeed="max" from="273833832#0" to="622415793#1"/>
    <trip id="veh245" type="veh_passenger" depart="2395.12" departLane="best" from="-672838526#2" to="-366913700#2"/>
    <trip id="veh246" type="veh_passenger" depart="2404.90" departLane="best" from="-104902793" to="177566523#9"/>
    <trip id="veh247" type="veh_passenger" depart="2414.68" departLane="best" departSpeed="max" from="177566572#0" to="177566523#4"/>
    <trip id="veh248" type="veh_passenger" depart="2424.45" departLane="best" departSpeed="max" from="273833832#0" to="177566541"/>
    <trip id="veh249" type="veh_passenger" depart="2434.23" departLane="best" departSpeed="max" from="273833832#0" to="547023629#1"/>
    <trip id="veh250" type="veh_passenger" depart="2444.00" departLane="best" from="22843127#0" to="622415769#0"/>
    <trip id="veh251" type="veh_passenger" depart="2453.78" departLane="best" departSpeed="max" from="177566537" to="177566556#2"/>
    <trip id="veh253" type="veh_passenger" depart="2473.33" departLane="best" from="273833832#5" to="-366913700#2"/>
    <trip id="veh254" type="veh_passenger" depart="2483.11" departLane="best" from="-672838526#0" to="177566523#5"/>
    <trip id="veh255" type="veh_passenger" depart="2492.88" departLane="best" departSpeed="max" from="273833832#0" to="177566556#3"/>
    <trip id="veh256" type="veh_passenger" depart="2502.66" departLane="best" departSpeed="max" from="273833832#0" to="177566572#3"/>
    <trip id="veh257" type="veh_passenger" depart="2512.44" departLane="best" from="622415793#0" to="177566541"/>
    <trip id="veh258" type="veh_passenger" depart="2522.21" departLane="best" from="177566556#2" to="-366913700#3"/>
    <trip id="veh259" type="veh_passenger" depart="2531.99" departLane="best" from="-22843127#1" to="177566523#9"/>
    <trip id="veh260" type="veh_passenger" depart="2541.76" departLane="best" from="273833832#5" to="177566556#3"/>
    <trip id="veh261" type="veh_passenger" depart="2551.54" departLane="best" from="622415793#2" to="992408934"/>
    <trip id="veh262" type="veh_passenger" depart="2561.32" departLane="best" from="22843134" to="177566523#2-AddedOnRampEdge"/>
    <trip id="veh263" type="veh_passenger" depart="2571.09" departLane="best" from="-22843127#1" to="22843276#1"/>
    <trip id="veh264" type="veh_passenger" depart="2580.87" departLane="best" departSpeed="max" from="177566537" to="177566559#3"/>
    <trip id="veh265" type="veh_passenger" depart="2590.64" departLane="best" departSpeed="max" from="177566572#0" to="177566559#0"/>
    <trip id="veh266" type="veh_passenger" depart="2600.42" departLane="best" from="177566556#2" to="-439272706#0"/>
    <trip id="veh267" type="veh_passenger" depart="2610.20" departLane="best" from="22843127#1" to="273833832#6"/>
    <trip id="veh268" type="veh_passenger" depart="2619.97" departLane="best" from="177566523#6" to="177566572#2"/>
    <trip id="veh269" type="veh_passenger" depart="2629.75" departLane="best" from="177566523#2-AddedOnRampEdge" to="622415793#0"/>
    <trip id="veh270" type="veh_passenger" depart="2639.52" departLane="best" from="273833832#4" to="177566556#3"/>
    <trip id="veh271" type="veh_passenger" depart="2649.30" departLane="best" departSpeed="max" from="177566537" to="177566523#5"/>
    <trip id="veh272" type="veh_passenger" depart="2659.08" departLane="best" from="177566523#5" to="672838526#2"/>
    <trip id="veh273" type="veh_passenger" depart="2668.85" departLane="best" from="723552318#1" to="177566559#4"/>
    <trip id="veh274" type="veh_passenger" depart="2678.63" departLane="best" from="177566558#7" to="177566523#9"/>
    <trip id="veh275" type="veh_passenger" depart="2688.40" departLane="best" departSpeed="max" from="273833832#0" to="177566558#8"/>
    <trip id="veh276" type="veh_passenger" depart="2698.18" departLane="best" departSpeed="max" from="273833832#0" to="104902793"/>
    <trip id="veh277" type="veh_passenger" depart="2707.96" departLane="best" from="177566558#8" to="547023629#2"/>
    <trip id="veh278" type="veh_passenger" depart="2717.73" departLane="best" departSpeed="max" from="177566537" to="177566572#3"/>
    <trip id="veh279" type="veh_passenger" depart="2727.51" departLane="best" departSpeed="max" from="177566572#0" to="177566523#1"/>
    <trip id="veh280" type="veh_passenger" depart="2737.28" departLane="best" from="-622415793#2" to="177566556#3"/>
    <trip id="veh281" type="veh_passenger" depart="2747.06" departLane="best" from="177566558#8" to="-439272706#1"/>
    <trip id="veh282" type="veh_passenger" depart="2756.84" departLane="best" departSpeed="max" from="177566537" to="-547023629#0"/>
    <trip id="veh283" type="veh_passenger" depart="2766.61" departLane="best" from="273833832#5" to="177566541"/>
    <trip id="veh284" type="veh_passenger" depart="2776.39" departLane="best" departSpeed="max" from="273833832#0" to="177566541"/>
    <trip id="veh285" type="veh_passenger" depart="2786.16" departLane="best" from="699397460" to="177566523#1"/>