<?xml version="1.0" encoding="UTF-8"?>

<!-- generated on 2021-12-05 23:18:45 by Eclipse SUMO polyconvert Version 1.9.2
<configuration xmlns:xsi="http://www.w3.org/2001/XMLSchema-instance" xsi:noNamespaceSchemaLocation="http://sumo.dlr.de/xsd/polyconvertConfiguration.xsd">

    <input>
        <net-file value="osm.net.xml"/>
        <osm-files value="osm_bbox.osm.xml"/>
        <osm.keep-full-type value="true"/>
        <type-file value="C:\Program%20Files%20(x86)\Eclipse\Sumo\data\typemap\osmPolyconvert.typ.xml"/>
    </input>

    <output>
        <output-file value="osm.poly.xml"/>
    </output>

    <processing>
        <poi-layer-offset value="5"/>
    </processing>

    <report>
        <verbose value="true"/>
    </report>

</configuration>
-->

<additional xmlns:xsi="http://www.w3.org/2001/XMLSchema-instance" xsi:noNamespaceSchemaLocation="http://sumo.dlr.de/xsd/additional_file.xsd">
    <location netOffset="-270676.52,-2115229.82" convBoundary="0.00,-300.25,12818.81,2922.71" origBoundary="72.819690,19.115651,72.941679,19.143641" projParameter="+proj=utm +zone=43 +ellps=WGS84 +datum=WGS84 +units=m +no_defs"/>

    <poly id="151581225" type="landuse.industrial" color="209,209,204" fill="1" layer="-3.00" shape="10824.344748,766.505330 10850.309867,661.298374 10881.466888,535.092222 10905.783156,284.781256 10998.283927,289.440499 10995.428010,358.266153 11091.986582,362.578701 11073.429979,548.601902 11067.373363,707.759536 11049.305763,729.221611 10978.681038,740.921993 10824.344748,766.505330"/>
    <poly id="156931858" type="landuse.residential" color="235,235,227" fill="1" layer="-3.00" shape="10677.290928,858.425864 10612.410904,861.998812 10607.396183,819.972806 10602.571992,747.075077 10592.345619,646.472386 10598.413727,634.608251 10599.077231,570.060170 10596.193641,541.749491 10593.848345,487.910858 10609.700214,491.652969 10628.645113,508.578581 10619.385625,593.679335 10624.373587,633.457988 10637.687704,652.133547 10658.133671,662.552978 10667.701427,668.861109 10709.552696,818.193198 10677.290928,858.425864"/>
    <poly id="177566574" type="landuse.residential" color="235,235,227" fill="1" layer="-3.00" shape="10261.540560,38.589582 10298.817097,98.589200 10343.368456,170.305295 10370.878429,278.973192 10424.254219,423.672390 10430.580987,488.358773 10388.187516,531.513823 10326.360727,476.966152 10304.904853,477.221677 10285.979667,555.639506 10392.719861,578.063050 10484.820183,639.358972 10461.305938,666.489081 10477.363159,708.715819 10461.711857,721.812371 10473.859146,752.969087 10525.198628,743.500285 10531.189784,772.050796 10511.349652,1052.171654 10531.557690,1053.237673 10525.589593,1107.972488 10537.289828,1108.663659 10548.495025,1064.219097 10582.617257,1061.000712 10576.688458,996.110284 10547.923110,1001.125060 10565.166959,847.701888 10602.529241,837.259138 10587.280678,646.233685 10591.577995,627.946557 10594.018087,572.080136 10584.388038,459.678406 10495.418129,394.391888 10437.868427,365.845984 10424.622343,285.718644 10453.673735,211.786630 10435.405861,171.313462 10396.575383,134.561738 10335.169946,107.545633 10319.946250,76.159850 10300.408281,47.493865 10282.380839,-20.474513 10185.505057,-190.774858 10168.007964,-237.147486 10171.292869,-293.588793 10142.417921,-300.253549 10134.845941,-272.382989 10132.356679,-244.572983 10133.348909,-208.112719 10154.040712,-147.129553 10243.745802,7.843439 10261.540560,38.589582"/>
    <poly id="233081734" type="landuse.residential" color="235,235,227" fill="1" layer="-3.00" shape="10912.642548,1067.805923 10896.459695,890.886608 10774.771978,913.093159 10782.529938,1024.797444 10787.762284,1100.214776 10901.455426,1070.441161 10912.642548,1067.805923"/>
    <poly id="353182374" type="building.yes" color="255,230,230" fill="1" layer="-1.00" shape="10389.095422,834.041785 10401.253036,834.240263 10401.404714,824.882386 10389.247094,824.683907 10389.095422,834.041785"/>
    <poly id="353182377" type="building.yes" color="255,230,230" fill="1" layer="-1.00" shape="10375.137206,807.247008 10389.614328,809.565880 10391.094876,800.446842 10376.617879,798.139039 10375.137206,807.247008"/>
    <poly id="353182379" type="building.yes" color="255,230,230" fill="1" layer="-1.00" shape="10462.646423,996.592832 10481.302389,999.880661 10483.503014,987.597464 10464.846905,984.298560 10462.646423,996.592832"/>
    <poly id="353182380" type="building.yes" color="255,230,230" fill="1" layer="-1.00" shape="10359.688268,859.415318 10371.963198,859.745245 10375.004572,829.692089 10363.855114,828.429756 10359.688268,859.415318"/>
    <poly id="353182383" type="building.yes" color="255,230,230" fill="1" layer="-1.00" shape="10386.755719,853.202535 10400.811616,854.618502 10401.791805,845.018242 10387.735769,843.591203 10386.755719,853.202535"/>
    <poly id="353182389" type="building.yes" color="255,230,230" fill="1" layer="-1.00" shape="10366.681938,802.453750 10375.178409,803.636956 10377.779091,785.181722 10369.293134,783.998389 10366.681938,802.453750"/>
    <poly id="353182392" type="building.yes" color="255,230,230" fill="1" layer="-1.00" shape="10316.341287,787.087076 10340.165239,793.944939 10345.493740,775.667583 10321.669768,768.809711 10316.341287,787.087076"/>
    <poly id="353182394" type="building.yes" color="255,230,230" fill="1" layer="-1.00" shape="10392.169393,806.723099 10403.259174,809.159822 10407.514538,790.020558 10396.424746,787.583831 10392.169393,806.723099"/>
    <poly id="353182403" type="building.yes" color="255,230,230" fill="1" layer="-1.00" shape="10329.728457,865.773316 10343.403671,866.152979 10343.567921,860.504161 10349.989692,860.682340 10350.219904,852.618981 10330.112515,852.072333 10329.728457,865.773316"/>
    <poly id="353193443" type="building.yes" color="255,230,230" fill="1" layer="-1.00" shape="10446.708448,818.507934 10454.673241,819.232469 10456.053725,804.357050 10452.945751,804.072951 10453.578788,797.134175 10440.293507,795.919363 10439.519769,804.299210 10447.063140,804.984470 10446.485334,811.258253 10450.952428,811.670112 10450.701134,814.430098 10447.108466,814.096409 10446.708448,818.507934"/>
    <poly id="353193446" type="building.yes" color="255,230,230" fill="1" layer="-1.00" shape="10474.148075,919.592217 10484.072639,920.514877 10484.146672,919.661431 10490.762960,920.269160 10490.689058,921.133677 10501.498561,922.134391 10502.349116,913.133586 10496.575680,912.604399 10496.454568,913.923441 10490.733744,913.393629 10490.826978,912.384943 10474.960349,910.912961 10474.148075,919.592217"/>
    <poly id="353193485" type="building.yes" color="255,230,230" fill="1" layer="-1.00" shape="10470.107806,894.915932 10480.185214,895.416026 10479.936197,900.135776 10483.621705,900.313354 10483.553337,901.642840 10497.200631,902.332969 10497.466217,897.236565 10500.593769,897.398642 10500.696454,895.415484 10505.519313,895.657035 10506.980573,867.228207 10497.882405,866.771804 10497.266823,878.715034 10500.668095,878.884926 10500.428014,883.471702 10497.479605,883.329637 10496.915829,894.320037 10482.141832,893.576884 10483.618303,864.660690 10472.909001,864.123825 10472.764776,867.037548 10474.102189,867.110207 10473.709738,874.810105 10471.150924,874.685552 10470.756629,882.230460 10472.441416,882.310056 10472.149539,887.849665 10470.475144,887.758873 10470.107806,894.915932"/>
    <poly id="353193492" type="building.yes" color="255,230,230" fill="1" layer="-1.00" shape="10440.169097,880.059030 10454.715965,881.170238 10455.609584,869.600151 10441.073230,868.488815 10440.169097,880.059030"/>
    <poly id="353193500" type="building.yes" color="255,230,230" fill="1" layer="-1.00" shape="10382.449387,916.664734 10389.378217,917.888753 10390.917558,909.289410 10383.988857,908.076461 10382.449387,916.664734"/>
    <poly id="353193505" type="building.yes" color="255,230,230" fill="1" layer="-1.00" shape="10443.555867,845.417864 10459.556847,846.677853 10460.893750,829.909595 10444.892888,828.660675 10443.555867,845.417864"/>
    <poly id="353193509" type="building.yes" color="255,230,230" fill="1" layer="-1.00" shape="10419.192059,900.161358 10433.199104,901.013241 10433.842562,890.531211 10419.846032,889.679202 10419.192059,900.161358"/>
    <poly id="353193510" type="building.yes" color="255,230,230" fill="1" layer="-1.00" shape="10413.904138,921.848468 10429.818899,922.943367 10430.546533,912.460334 10414.631763,911.365434 10413.904138,921.848468"/>
    <poly id="353193518" type="building.yes" color="255,230,230" fill="1" layer="-1.00" shape="10359.174732,909.080595 10362.039487,909.267923 10361.762996,913.445464 10375.844355,914.351779 10376.510933,904.046624 10359.575465,902.963926 10359.174732,909.080595"/>
    <poly id="353193521" type="building.yes" color="255,230,230" fill="1" layer="-1.00" shape="10468.776112,943.948722 10474.388936,944.247294 10474.344626,944.945374 10476.977351,945.091192 10477.011007,944.382166 10481.054797,944.599766 10481.667349,933.287688 10469.378134,932.636768 10468.776112,943.948722"/>
    <poly id="353193523" type="building.yes" color="255,230,230" fill="1" layer="-1.00" shape="10488.960621,958.058121 10504.177319,959.748219 10505.796427,945.467868 10498.072128,944.607587 10497.557939,949.153337 10493.279494,948.672792 10493.812751,943.960731 10490.598655,943.600385 10488.960621,958.058121"/>
    <poly id="353203898" type="building.yes" color="255,230,230" fill="1" layer="-1.00" shape="10790.646915,1001.150283 10804.064961,999.385316 10803.833722,997.638649 10810.737082,996.726179 10808.748669,981.724772 10796.728119,983.307040 10795.965476,977.580680 10788.158496,978.614618 10789.106607,985.778166 10788.612711,985.839398 10790.646915,1001.150283"/>
    <poly id="353203900" type="building.yes" color="255,230,230" fill="1" layer="-1.00" shape="10786.289677,1038.305186 10796.368811,1037.188874 10797.263786,1045.194544 10807.994514,1044.004060 10807.087048,1035.832454 10816.146826,1034.838992 10815.380238,1027.894732 10802.957236,1029.260337 10801.815107,1019.054227 10795.729740,1019.724461 10796.600380,1027.453614 10785.217911,1028.707213 10786.289677,1038.305186"/>
    <poly id="353203906" type="building.yes" color="255,230,230" fill="1" layer="-1.00" shape="10825.612158,940.457386 10834.842314,938.742217 10831.483231,920.867243 10838.991266,919.471494 10842.058471,935.810896 10853.525308,933.681629 10850.559393,917.894636 10856.376865,916.817934 10859.163103,931.654850 10870.094351,929.620536 10865.567565,905.581123 10820.624289,913.932201 10825.612158,940.457386"/>
    <poly id="353203908" type="building.yes" color="255,230,230" fill="1" layer="-1.00" shape="10833.771605,1042.579395 10841.695751,1041.665875 10842.399455,1047.747247 10858.153306,1045.943485 10857.285059,1038.413604 10865.766237,1037.438114 10864.042245,1022.544287 10855.371790,1023.533098 10855.665107,1026.076229 10837.767170,1028.115844 10837.473981,1025.583784 10831.882775,1026.214917 10833.771605,1042.579395"/>
    <poly id="353203912" type="building.yes" color="255,230,230" fill="1" layer="-1.00" shape="10662.866893,726.051431 10676.634203,721.779910 10670.880527,703.446243 10668.930302,704.056263 10667.836574,700.581509 10669.052851,700.201662 10662.325527,678.757198 10661.098726,679.137172 10659.906474,675.342494 10661.133275,674.962521 10656.834509,661.272974 10648.896929,663.725759 10647.715459,659.953098 10642.619503,661.530601 10662.866893,726.051431"/>
    <poly id="353203914" type="building.yes" color="255,230,230" fill="1" layer="-1.00" shape="10826.574110,996.604387 10833.805639,995.854110 10833.449575,992.459162 10839.009883,991.883759 10839.544042,996.981716 10848.615020,996.043500 10848.306575,993.113021 10856.904572,992.224719 10855.384973,977.704919 10845.998576,978.669023 10845.463760,973.515713 10831.978087,974.904994 10832.737567,982.137217 10825.138011,982.914014 10826.574110,996.604387"/>
    <poly id="353203918" type="building.yes" color="255,230,230" fill="1" layer="-1.00" shape="10871.108826,1022.083861 10882.977960,1020.160199 10881.242675,1009.628970 10881.463251,1009.593132 10880.487161,1003.614646 10882.514434,1003.291608 10881.573595,997.622726 10886.972382,996.739234 10886.314071,992.705687 10878.205235,994.019980 10877.331475,988.682469 10864.737589,990.725466 10865.486661,995.311546 10868.543291,994.821264 10869.258164,999.186306 10867.398985,999.485204 10871.108826,1022.083861"/>
    <poly id="353203920" type="building.yes" color="255,230,230" fill="1" layer="-1.00" shape="10795.839146,966.067043 10805.147551,964.738457 10804.585239,960.814492 10804.259570,960.862652 10802.986050,951.997846 10802.317720,947.122928 10801.361624,947.256087 10800.811282,943.453775 10797.510001,944.611310 10793.919214,944.432546 10794.228717,946.565811 10793.797954,946.626292 10795.151058,955.988403 10794.342014,956.097670 10794.858422,959.701085 10795.839146,966.067043"/>
    <poly id="353203929" type="building.yes" color="255,230,230" fill="1" layer="-1.00" shape="10619.296847,787.068433 10622.888065,787.280379 10622.389279,795.778733 10636.996292,796.634715 10637.400667,789.931190 10640.770647,790.123626 10641.568748,776.705631 10638.093409,776.503375 10638.355100,771.960637 10639.555594,772.023865 10639.897637,766.273296 10632.831074,765.859091 10632.926676,764.163899 10627.892678,763.869461 10628.033124,761.520472 10617.954603,760.931725 10617.351406,771.269316 10620.215912,771.434545 10619.296847,787.068433"/>
    <poly id="353203947" type="building.yes" color="255,230,230" fill="1" layer="-1.00" shape="10266.347443,781.404645 10274.928012,783.461514 10279.672541,763.873488 10271.091964,761.816616 10266.347443,781.404645"/>
    <poly id="353203976" type="building.yes" color="255,230,230" fill="1" layer="-1.00" shape="10686.939354,801.610114 10701.260625,797.907775 10685.272993,736.702234 10668.780348,741.006158 10686.939354,801.610114"/>
    <poly id="353204016" type="building.yes" color="255,230,230" fill="1" layer="-1.00" shape="10248.474983,777.653706 10262.800017,781.336186 10265.305917,771.717735 10250.991398,768.035127 10248.474983,777.653706"/>
    <poly id="353204037" type="building.yes" color="255,230,230" fill="1" layer="-1.00" shape="10247.667089,776.976850 10250.203158,769.007807 10236.435087,763.491772 10225.445546,751.808593 10221.166964,756.620659 10232.289930,769.785932 10247.667089,776.976850"/>
    <poly id="353204050" type="building.yes" color="255,230,230" fill="1" layer="-1.00" shape="10416.054556,764.806968 10423.289341,764.322233 10423.097894,761.501084 10427.451472,761.216736 10427.632396,764.038011 10430.965943,763.821170 10430.275946,753.598606 10415.375205,754.595350 10416.054556,764.806968"/>
    <poly id="353785590" type="building.apartments" color="255,230,230" fill="1" layer="-1.00" shape="10223.244758,1102.294825 10232.815881,1097.408601 10226.880166,1085.908801 10236.252560,1081.124599 10231.792716,1072.486003 10222.116884,1077.417763 10214.931397,1063.485884 10205.464823,1068.315507 10212.951673,1082.808478 10203.317807,1087.728676 10207.185208,1095.222810 10216.996895,1090.211916 10223.244758,1102.294825"/>
    <poly id="353785593" type="building.yes" color="255,230,230" fill="1" layer="-1.00" shape="10798.925743,745.847651 10806.263396,747.819885 10807.644992,742.754522 10816.281261,745.076710 10814.889271,750.153268 10819.640341,751.436549 10827.265195,723.554609 10820.201913,721.645539 10817.902356,730.054555 10810.427379,728.039659 10812.726933,719.630642 10808.036098,718.988836 10806.550570,717.965699 10798.925743,745.847651"/>
    <poly id="353785596" type="building.yes" color="255,230,230" fill="1" layer="-1.00" shape="10317.373421,720.884704 10327.867673,722.797012 10326.216937,731.763073 10337.597057,733.830919 10338.437288,729.270206 10365.753963,734.248515 10368.245088,720.732820 10361.020363,719.412675 10361.929777,714.474683 10350.960954,712.479429 10352.938516,701.793277 10342.159487,699.828984 10340.736126,707.563312 10327.657894,705.183518 10326.748489,710.121512 10320.578521,708.999193 10320.094164,711.629091 10319.113319,711.452545 10317.373421,720.884704"/>
    <poly id="353785624" type="building.yes" color="255,230,230" fill="1" layer="-1.00" shape="10842.411968,768.947977 10889.562844,762.131954 10885.038577,731.216647 10837.887621,738.032674 10842.411968,768.947977"/>
    <poly id="354026114" type="building.yes" color="255,230,230" fill="1" layer="-1.00" shape="10485.084689,1017.916656 10501.093136,1018.932985 10501.767001,1008.350948 10485.769067,1007.334492 10485.084689,1017.916656"/>
    <poly id="354067601" type="building.yes" color="255,230,230" fill="1" layer="-1.00" shape="10384.305034,897.509745 10397.193009,898.064903 10398.459951,869.239760 10385.571955,868.684599 10384.305034,897.509745"/>
    <poly id="354067609" type="building.yes" color="255,230,230" fill="1" layer="-1.00" shape="10444.026038,775.291580 10459.045409,774.537035 10458.451805,762.685701 10443.432292,763.429175 10444.026038,775.291580"/>
    <poly id="354067613" type="building.yes" color="255,230,230" fill="1" layer="-1.00" shape="10423.032273,805.491999 10437.210781,806.596513 10438.107958,795.325334 10423.929310,794.209747 10423.032273,805.491999"/>
    <poly id="354067615" type="building.yes" color="255,230,230" fill="1" layer="-1.00" shape="10437.684739,902.100282 10449.027085,902.773528 10449.597311,893.211370 10438.254959,892.538123 10437.684739,902.100282"/>
    <poly id="355017976" type="building.yes" color="255,230,230" fill="1" layer="-1.00" shape="10501.717036,793.704567 10518.026991,793.510467 10517.820417,776.151614 10501.510447,776.345712 10501.717036,793.704567"/>
    <poly id="355057953" type="building.yes" color="255,230,230" fill="1" layer="-1.00" shape="10465.226491,978.171076 10477.830427,978.740738 10478.330126,967.673592 10465.726182,967.103929 10465.226491,978.171076"/>
    <poly id="355057956" type="building.office" color="255,230,230" fill="1" layer="-1.00" shape="10391.828457,1098.016579 10403.054771,1092.490690 10393.103058,1072.490874 10381.876733,1078.016768 10391.828457,1098.016579"/>
    <poly id="355057959" type="building.yes" color="255,230,230" fill="1" layer="-1.00" shape="10430.795801,955.495290 10447.604018,956.502057 10448.597866,940.092191 10431.789634,939.085422 10430.795801,955.495290"/>
    <poly id="355057960" type="building.yes" color="255,230,230" fill="1" layer="-1.00" shape="10411.342710,937.413367 10427.743974,937.827061 10428.022543,926.751471 10411.621401,926.348847 10411.342710,937.413367"/>
    <poly id="380956879" type="building.school" color="255,230,230" fill="1" layer="-1.00" shape="10374.665951,1130.873123 10373.551417,1145.977913 10411.743977,1148.756176 10410.947865,1159.671848 10395.180089,1158.530949 10395.885735,1148.856447 10385.468710,1148.105796 10384.752415,1157.769354 10372.755328,1156.893590 10371.967125,1167.587727 10383.700884,1168.444481 10383.375083,1172.899417 10371.630937,1172.053859 10369.900184,1195.503417 10384.235577,1196.550628 10386.737469,1162.739310 10391.919737,1163.120483 10391.493483,1168.860999 10424.409023,1171.259238 10427.109666,1134.688572 10374.665951,1130.873123"/>
    <poly id="483432031" type="landuse.military" color="153,153,92" fill="1" layer="-3.00" shape="10681.781999,1472.273826 10629.982016,1483.552674 10589.186129,1366.295628 10576.548416,1319.532822 10557.184065,1248.734672 10549.182303,1192.715648 10550.405339,1176.989545 10542.228980,1177.928345 10539.388379,1223.978499 10537.736542,1244.348989 10533.476797,1296.716162 10531.601517,1399.987406 10529.659691,1544.514745 10536.528908,1599.982567 10525.662218,1707.291546 10517.008209,1762.667379 10511.708996,1815.201995 10501.792305,1859.088789 10497.551963,1859.139282 10493.619449,1978.711370 10492.900624,2013.785844 10507.655347,2043.914967 10516.479396,2097.399724 10519.566845,2142.814669 10511.501034,2176.858336 10508.971823,2225.152534 10627.799787,2225.132855 10712.267516,2231.147454 10762.775555,2229.981874 10876.535298,2248.016506 10902.242087,2220.462059 10918.349347,2234.310203 10904.453080,2252.423523 10994.797689,2242.945885 11120.835251,2223.578004 11207.750124,2206.181235 11256.791839,2188.758247 11269.482368,2175.420607 11282.259238,2158.715995 11300.513838,2126.522782 11350.866810,2088.324099 11384.626044,2079.508763 11405.063314,2089.364235 11498.347200,2053.469241 11429.921500,1900.531707 11477.106893,1880.894849 11092.218203,1129.582273 11075.316469,1084.331412 11071.966420,1040.602654 11068.746382,844.706699 11067.991689,829.004165 11059.782954,803.292243 11050.023727,788.814898 11038.646446,781.653365 11014.344289,779.694230 10977.839219,787.014627 10868.470925,808.930238 10808.863377,824.021397 10771.769870,838.490815 10747.183643,859.554623 10718.967721,908.142958 10652.102647,1125.267896 10619.882112,1156.520654 10681.781999,1472.273826"/>
    <poly id="52511399" type="building.school" color="255,230,230" fill="1" layer="-1.00" shape="10323.397095,1012.777882 10330.844544,1027.503880 10355.282923,1015.287946 10364.950440,1034.394279 10351.936103,1040.893700 10348.487306,1034.081038 10339.668068,1038.482130 10344.916836,1048.860770 10335.783911,1053.431685 10333.606690,1049.117286 10327.319248,1052.259203 10329.442540,1056.463522 10322.056710,1060.161067 10318.672490,1053.469435 10321.591231,1052.006341 10320.006850,1048.869615 10314.273932,1051.739197 10315.211671,1053.599241 10294.738277,1063.830348 10290.136127,1054.728400 10313.643491,1042.988532 10303.415302,1022.759527 10323.397095,1012.777882"/>
    <poly id="52511400" type="building.apartments" color="255,230,230" fill="1" layer="-1.00" shape="10240.424654,1145.094845 10255.453362,1145.148265 10255.363173,1149.943640 10264.551042,1149.989166 10264.704660,1131.086943 10270.231016,1131.198248 10270.257059,1123.668783 10247.818075,1123.493282 10247.799741,1118.422393 10240.485235,1118.387766 10240.445572,1138.019404 10235.089158,1138.038950 10235.068243,1145.114392 10240.424654,1145.094845"/>
    <poly id="556314751" type="leisure.playground" color="207,245,201" fill="1" layer="-2.00" shape="10250.389193,1227.973963 10292.857434,1143.573200 10362.317469,1145.558102 10355.931072,1227.856925 10250.389193,1227.973963"/>
    <poly id="617989951" type="amenity.university" color="237,199,199" fill="0" layer="-1.00" shape="10456.502056,2299.275329 10458.520133,2267.274525 10465.136021,2241.386218 10461.784381,2197.657398 10430.277279,2206.447670 10423.374229,2100.468472 10459.415221,1856.504280 10486.143069,1493.125996 10500.136686,1388.581066 10507.977148,1169.356405 10495.183122,1161.647385 10465.233128,1119.287098 10414.202396,1045.887605 10170.565220,769.702175 10157.119947,758.601916 10147.011281,748.425181 9861.542275,670.603773 9673.784309,619.809242 9645.241416,617.061033 9429.380788,647.986282 9403.427915,648.850275 9372.552150,640.239905 9333.313395,616.992345"/>
    <poly id="622413782" type="building.apartments" color="255,230,230" fill="1" layer="-1.00" shape="10148.923924,889.452285 10166.823413,886.648001 10163.875724,868.026329 10145.976084,870.819544 10148.923924,889.452285"/>
    <poly id="622413787" type="building.apartments" color="255,230,230" fill="1" layer="-1.00" shape="10159.167166,1004.504149 10176.356440,992.451893 10167.857501,980.462261 10150.657696,992.514650 10159.167166,1004.504149"/>
    <poly id="622413789" type="building.apartments" color="255,230,230" fill="1" layer="-1.00" shape="10178.222358,935.329853 10192.535950,945.124306 10202.219668,931.135314 10187.895682,921.352048 10178.222358,935.329853"/>
    <poly id="622413791" type="building.apartments" color="255,230,230" fill="1" layer="-1.00" shape="10197.903202,878.017633 10210.960650,890.141183 10223.390033,876.938835 10210.332454,864.804205 10197.903202,878.017633"/>
    <poly id="622415799" type="building.apartments" color="255,230,230" fill="1" layer="-1.00" shape="10191.117988,817.322715 10184.236468,823.605212 10169.832463,807.998881 10176.703462,801.716504 10191.117988,817.322715"/>
    <poly id="622525941" type="building.apartments" color="255,230,230" fill="1" layer="-1.00" shape="10229.401483,900.971564 10230.737471,886.794191 10252.504289,888.826784 10251.168153,902.993083 10229.401483,900.971564"/>
    <poly id="622525943" type="building.apartments" color="255,230,230" fill="1" layer="-1.00" shape="10242.740711,934.095900 10253.586046,939.868197 10263.377787,921.692631 10252.542968,915.920202 10242.740711,934.095900"/>
    <poly id="622525945" type="building.apartments" color="255,230,230" fill="1" layer="-1.00" shape="10258.996487,886.966791 10272.298439,908.133521 10281.042330,902.703578 10267.750908,881.536717 10258.996487,886.966791"/>
    <poly id="622525946" type="building.apartments" color="255,230,230" fill="1" layer="-1.00" shape="10302.956012,932.968795 10303.219592,928.592104 10303.473442,924.281963 10277.502694,922.720147 10276.974884,931.418177 10302.956012,932.968795"/>
    <poly id="622525949" type="building.apartments" color="255,230,230" fill="1" layer="-1.00" shape="10331.748725,990.323465 10332.100493,979.213778 10355.103660,979.914152 10354.741382,991.909744 10331.727707,991.209498 10331.748725,990.323465"/>
    <poly id="622525951" type="building.apartments" color="255,230,230" fill="1" layer="-1.00" shape="10360.369325,1005.849146 10374.455255,1026.585846 10382.572643,1021.573083 10368.921567,1001.119078 10360.369325,1005.849146"/>
    <poly id="622525953" type="building.apartments" color="255,230,230" fill="1" layer="-1.00" shape="10381.319402,1048.892243 10403.672301,1048.902858 10403.679876,1037.166156 10381.326963,1037.155540 10381.319402,1048.892243"/>
    <poly id="622528572" type="building.apartments" color="255,230,230" fill="1" layer="-1.00" shape="10238.655902,1016.101635 10239.636251,1006.523497 10261.584051,1008.742157 10260.593169,1018.320418 10238.655902,1016.101635"/>
    <poly id="622528574" type="building.apartments" color="255,230,230" fill="1" layer="-1.00" shape="10234.828541,988.123288 10226.007178,970.269164 10233.872743,967.086262 10241.424808,984.401901 10234.828541,988.123288"/>
    <poly id="622533040" type="building.apartments" color="255,230,230" fill="1" layer="-1.00" shape="10319.203769,966.434978 10328.001045,961.070854 10316.475595,942.374195 10307.678312,947.738324 10319.203769,966.434978"/>
    <poly id="622533042" type="building.apartments" color="255,230,230" fill="1" layer="-1.00" shape="10312.387500,1005.579183 10319.633020,998.052298 10301.111229,980.413353 10292.431020,989.418879 10310.963334,1007.057690 10312.387500,1005.579183"/>
    <poly id="622533045" type="building.apartments" color="255,230,230" fill="1" layer="-1.00" shape="10213.198326,1016.969711 10203.500656,1008.592847 10216.509669,993.700587 10226.207339,1002.077458 10213.198326,1016.969711"/>
    <poly id="622540260" type="building.apartments" color="255,230,230" fill="1" layer="-1.00" shape="10335.280614,1123.381277 10354.855308,1116.338659 10350.927634,1105.545680 10331.353060,1112.599372 10335.280614,1123.381277"/>
    <poly id="622540261" type="building.apartments" color="255,230,230" fill="1" layer="-1.00" shape="10364.874113,1113.694847 10359.786635,1103.602162 10375.029538,1096.013260 10380.117008,1106.105949 10364.874113,1113.694847"/>
    <poly id="622540262" type="building.apartments" color="255,230,230" fill="1" layer="-1.00" shape="10358.252001,1079.017836 10365.326350,1074.792545 10373.538952,1088.380069 10366.464607,1092.605357 10358.252001,1079.017836"/>
    <poly id="622540263" type="building.apartments" color="255,230,230" fill="1" layer="-1.00" shape="10328.943052,1104.644966 10317.658682,1083.210589 10327.155519,1078.269942 10338.439880,1099.704324 10328.943052,1104.644966"/>
    <poly id="622791282" type="leisure.playground" color="207,245,201" fill="1" layer="-2.00" shape="10247.378764,971.819269 10257.533248,980.556099 10266.826433,988.550280 10279.793551,973.669644 10284.932660,967.773323 10265.484858,951.031222 10247.378764,971.819269"/>
    <poly id="723512525" type="amenity.school" color="237,199,199" fill="1" layer="-1.00" shape="10425.181461,1233.476232 10429.926110,1228.924389 10433.220972,1126.477682 10429.749197,1119.499198 10410.159156,1109.346672 10399.142731,1108.636366 10388.724202,1111.295991 10366.046683,1126.436147 10348.571324,1128.604089 10299.733707,1128.909075 10289.124980,1138.568709 10241.905896,1226.115269 10247.619348,1232.214443 10425.181461,1233.476232"/>